version 2
run DMAT-0-20170731-16:48:09-15072
attr configname DMAT
attr datetime 20170731-16:48:09
attr experiment DMAT
attr inifile omnetpp.ini
attr iterationvars "$logDistVehPar=25, $totHops=1"
attr iterationvars2 "$logDistVehPar=25, $totHops=1, $repetition=0"
attr logDistVehPar 25
attr measurement "$logDistVehPar=25, $totHops=1"
attr network com.liborio.cooperativepositioning.LocScenario
attr processid 15072
attr repetition 0
attr replication #0
attr resultdir results
attr runnumber 0
attr seedset 1
attr totHops 1
param **.coreDebug false
param **.debug false
param *.annotations.draw false
param *.connectionManager.drawMaxIntfDist false
param *.connectionManager.maxInterfDist 600m
param *.connectionManager.sendDirect true
param *.manager.autoShutdown true
param *.manager.host "\"localhost\""
param *.manager.launchConfig "xmldoc(\"dmat-\"+string(${logDistVehPar = 25,50, 100, 150})+\".launchd.xml\")"
param *.manager.port 9999
param *.manager.updateInterval 0.1s
param *.node[*].appl.beaconInterval 0.1s
param *.node[*].appl.dataOnSch false
param *.node[*].appl.forwardBeacons true
param *.node[*].appl.forwardInterval 0.1s
param *.node[*].appl.headerLength "80 bit"
param *.node[*].appl.logDistVehPar ${logDistVehPar}
param *.node[*].appl.logSeedPar ${seedset}
param *.node[*].appl.numHops ${totHops=1,2,3,4,5}
param *.node[*].appl.sendBeacons true
param *.node[*].applType "\"LocAppCom\""
param *.node[*].nic.mac1609_4.bitrate 6Mbps
param *.node[*].nic.mac1609_4.txPower 20mW
param *.node[*].nic.mac1609_4.useServiceChannel false
param *.node[*].nic.phy80211p.analogueModels "xmldoc(\"config.xml\")"
param *.node[*].nic.phy80211p.antenna "xmldoc(\"antenna.xml\", \"/root/Antenna[@id='monopole']\")"
param *.node[*].nic.phy80211p.decider "xmldoc(\"config.xml\")"
param *.node[*].nic.phy80211p.sensitivity -84.39dBm
param *.node[*].nic.phy80211p.thermalNoise -110dBm
param *.node[*].nic.phy80211p.usePropagationDelay true
param *.node[*].nic.phy80211p.useThermalNoise true
param *.node[*].veinsmobility.x 0
param *.node[*].veinsmobility.y 0
param *.node[*].veinsmobility.z 1.895
param *.node[*].veinsmobilityType.debug true
param *.outagesServer.appl.beaconInterval 0.1s
param *.outagesServer.appl.beaconPriority 3
param *.outagesServer.appl.dataOnSch false
param *.outagesServer.appl.dataPriority 2
param *.outagesServer.appl.headerLength "80 bit"
param *.outagesServer.appl.sendBeacons false
param *.outagesServer.applType "\"Outages\""
param *.outagesServer.mobility.x 5000.0
param *.outagesServer.mobility.y 10.0
param *.outagesServer.mobility.z 3
param *.outagesServer.nic.mac1609_4.bitrate 6Mbps
param *.outagesServer.nic.mac1609_4.txPower 20mW
param *.outagesServer.nic.mac1609_4.useServiceChannel false
param *.outagesServer.nic.phy80211p.analogueModels "xmldoc(\"config.xml\")"
param *.outagesServer.nic.phy80211p.antenna "xmldoc(\"antenna.xml\", \"/root/Antenna[@id='monopole']\")"
param *.outagesServer.nic.phy80211p.decider "xmldoc(\"config.xml\")"
param *.outagesServer.nic.phy80211p.sensitivity -90.41dBm
param *.outagesServer.nic.phy80211p.thermalNoise -110dBm
param *.outagesServer.nic.phy80211p.usePropagationDelay true
param *.outagesServer.nic.phy80211p.useThermalNoise true
param *.playgroundSizeX 5500m
param *.playgroundSizeY 5500m
param *.playgroundSizeZ 50m
param *.rsu[*].appl.beaconInterval 0.1s
param *.rsu[*].appl.beaconPriority 3
param *.rsu[*].appl.dataOnSch false
param *.rsu[*].appl.dataPriority 2
param *.rsu[*].appl.forwardBeacons false
param *.rsu[*].appl.forwardInterval 0.1s
param *.rsu[*].appl.headerLength "80 bit"
param *.rsu[*].appl.numHops ${totHops}
param *.rsu[*].appl.sendBeacons false
param *.rsu[*].applType "\"RSU\""
param *.rsu[*].nic.mac1609_4.bitrate 6Mbps
param *.rsu[*].nic.mac1609_4.txPower 20mW
param *.rsu[*].nic.mac1609_4.useServiceChannel false
param *.rsu[*].nic.phy80211p.analogueModels "xmldoc(\"config.xml\")"
param *.rsu[*].nic.phy80211p.antenna "xmldoc(\"antenna.xml\", \"/root/Antenna[@id='monopole']\")"
param *.rsu[*].nic.phy80211p.decider "xmldoc(\"config.xml\")"
param *.rsu[*].nic.phy80211p.sensitivity -90.41dBm
param *.rsu[*].nic.phy80211p.thermalNoise -110dBm
param *.rsu[*].nic.phy80211p.usePropagationDelay true
param *.rsu[*].nic.phy80211p.useThermalNoise true
param *.rsu[0].mobility.x 385.772
param *.rsu[0].mobility.y 1238.66
param *.rsu[0].mobility.z 3

scalar . 	logDistVehPar 	25
scalar . 	totHops 	1
scalar LocScenario.node[0].appl 	generatedWSMs 	0
scalar LocScenario.node[0].appl 	receivedWSMs 	0
scalar LocScenario.node[0].appl 	generatedBSMs 	1397
scalar LocScenario.node[0].appl 	receivedBSMs 	10185
scalar LocScenario.node[0].appl 	generatedWSAs 	0
scalar LocScenario.node[0].appl 	receivedWSAs 	0
scalar LocScenario.node[0].appl 	rmseGPS 	330.68533462404
scalar LocScenario.node[0].appl 	rmseDRCP 	4.4469968632291
scalar LocScenario.node[0].appl 	timeOutage 	67.9
scalar LocScenario.node[0].nic.phy80211p 	busyTime 	0.014909821303979
scalar LocScenario.node[0].nic.mac1609_4 	ReceivedUnicastPackets 	0
scalar LocScenario.node[0].nic.mac1609_4 	ReceivedBroadcasts 	10185
scalar LocScenario.node[0].nic.mac1609_4 	SentPackets 	1397
scalar LocScenario.node[0].nic.mac1609_4 	SNIRLostPackets 	0
scalar LocScenario.node[0].nic.mac1609_4 	RXTXLostPackets 	0
scalar LocScenario.node[0].nic.mac1609_4 	TotalLostPackets 	0
scalar LocScenario.node[0].nic.mac1609_4 	DroppedPacketsInMac 	0
scalar LocScenario.node[0].nic.mac1609_4 	TooLittleTime 	0
scalar LocScenario.node[0].nic.mac1609_4 	TimesIntoBackoff 	1397
scalar LocScenario.node[0].nic.mac1609_4 	SlotsBackoff 	2165
scalar LocScenario.node[0].nic.mac1609_4 	NumInternalContention 	0
scalar LocScenario.node[0].nic.mac1609_4 	totalBusyTime 	1.205925
scalar LocScenario.node[0].veinsmobility 	startTime 	0.1
scalar LocScenario.node[0].veinsmobility 	totalTime 	71
scalar LocScenario.node[0].veinsmobility 	stopTime 	71.150080239211
scalar LocScenario.node[0].veinsmobility 	minSpeed 	10.450009571214
scalar LocScenario.node[0].veinsmobility 	maxSpeed 	10.499868466612
scalar LocScenario.node[0].veinsmobility 	totalDistance 	743.33699661147
scalar LocScenario.node[0].veinsmobility 	totalCO2Emission 	122.39557325874
scalar LocScenario.node[2].appl 	generatedWSMs 	0
scalar LocScenario.node[2].appl 	receivedWSMs 	0
scalar LocScenario.node[2].appl 	generatedBSMs 	1356
scalar LocScenario.node[2].appl 	receivedBSMs 	11195
scalar LocScenario.node[2].appl 	generatedWSAs 	0
scalar LocScenario.node[2].appl 	receivedWSAs 	0
scalar LocScenario.node[2].appl 	rmseGPS 	57.053353292679
scalar LocScenario.node[2].appl 	rmseDRCP 	8.6839973023245
scalar LocScenario.node[2].appl 	timeOutage 	25.8
scalar LocScenario.node[2].nic.phy80211p 	busyTime 	0.016961145506936
scalar LocScenario.node[2].nic.mac1609_4 	ReceivedUnicastPackets 	0
scalar LocScenario.node[2].nic.mac1609_4 	ReceivedBroadcasts 	11195
scalar LocScenario.node[2].nic.mac1609_4 	SentPackets 	1356
scalar LocScenario.node[2].nic.mac1609_4 	SNIRLostPackets 	0
scalar LocScenario.node[2].nic.mac1609_4 	RXTXLostPackets 	0
scalar LocScenario.node[2].nic.mac1609_4 	TotalLostPackets 	0
scalar LocScenario.node[2].nic.mac1609_4 	DroppedPacketsInMac 	0
scalar LocScenario.node[2].nic.mac1609_4 	TooLittleTime 	0
scalar LocScenario.node[2].nic.mac1609_4 	TimesIntoBackoff 	1356
scalar LocScenario.node[2].nic.mac1609_4 	SlotsBackoff 	2045
scalar LocScenario.node[2].nic.mac1609_4 	NumInternalContention 	0
scalar LocScenario.node[2].nic.mac1609_4 	totalBusyTime 	1.30666
scalar LocScenario.node[2].veinsmobility 	startTime 	2.5
scalar LocScenario.node[2].veinsmobility 	totalTime 	68.6
scalar LocScenario.node[2].veinsmobility 	stopTime 	71.150080239211
scalar LocScenario.node[2].veinsmobility 	minSpeed 	10.45004398335
scalar LocScenario.node[2].veinsmobility 	maxSpeed 	10.499864839285
scalar LocScenario.node[2].veinsmobility 	totalDistance 	718.11953707441
scalar LocScenario.node[2].veinsmobility 	totalCO2Emission 	118.3565124718
scalar LocScenario.node[20].appl 	generatedWSMs 	0
scalar LocScenario.node[20].appl 	receivedWSMs 	0
scalar LocScenario.node[20].appl 	generatedBSMs 	941
scalar LocScenario.node[20].appl 	receivedBSMs 	14231
scalar LocScenario.node[20].appl 	generatedWSAs 	0
scalar LocScenario.node[20].appl 	receivedWSAs 	0
scalar LocScenario.node[20].appl 	rmseGPS 	56.52288555305
scalar LocScenario.node[20].appl 	rmseDRCP 	7.0636189037621
scalar LocScenario.node[20].appl 	timeOutage 	20.9
scalar LocScenario.node[20].nic.phy80211p 	busyTime 	0.031458564841445
scalar LocScenario.node[20].nic.mac1609_4 	ReceivedUnicastPackets 	0
scalar LocScenario.node[20].nic.mac1609_4 	ReceivedBroadcasts 	14231
scalar LocScenario.node[20].nic.mac1609_4 	SentPackets 	941
scalar LocScenario.node[20].nic.mac1609_4 	SNIRLostPackets 	0
scalar LocScenario.node[20].nic.mac1609_4 	RXTXLostPackets 	0
scalar LocScenario.node[20].nic.mac1609_4 	TotalLostPackets 	0
scalar LocScenario.node[20].nic.mac1609_4 	DroppedPacketsInMac 	0
scalar LocScenario.node[20].nic.mac1609_4 	TooLittleTime 	0
scalar LocScenario.node[20].nic.mac1609_4 	TimesIntoBackoff 	941
scalar LocScenario.node[20].nic.mac1609_4 	SlotsBackoff 	1426
scalar LocScenario.node[20].nic.mac1609_4 	NumInternalContention 	0
scalar LocScenario.node[20].nic.mac1609_4 	totalBusyTime 	1.578829
scalar LocScenario.node[20].veinsmobility 	startTime 	24.1
scalar LocScenario.node[20].veinsmobility 	totalTime 	47
scalar LocScenario.node[20].veinsmobility 	stopTime 	71.150080239211
scalar LocScenario.node[20].veinsmobility 	minSpeed 	10.450007308309
scalar LocScenario.node[20].veinsmobility 	maxSpeed 	10.499968856142
scalar LocScenario.node[20].veinsmobility 	totalDistance 	495.03492134815
scalar LocScenario.node[20].veinsmobility 	totalCO2Emission 	81.150290206334
scalar LocScenario.node[22].appl 	generatedWSMs 	0
scalar LocScenario.node[22].appl 	receivedWSMs 	0
scalar LocScenario.node[22].appl 	generatedBSMs 	892
scalar LocScenario.node[22].appl 	receivedBSMs 	13328
scalar LocScenario.node[22].appl 	generatedWSAs 	0
scalar LocScenario.node[22].appl 	receivedWSAs 	0
scalar LocScenario.node[22].appl 	rmseGPS 	116.96673197716
scalar LocScenario.node[22].appl 	rmseDRCP 	7.0951428890486
scalar LocScenario.node[22].appl 	timeOutage 	30.2
scalar LocScenario.node[22].nic.phy80211p 	busyTime 	0.031379294113114
scalar LocScenario.node[22].nic.mac1609_4 	ReceivedUnicastPackets 	0
scalar LocScenario.node[22].nic.mac1609_4 	ReceivedBroadcasts 	13328
scalar LocScenario.node[22].nic.mac1609_4 	SentPackets 	892
scalar LocScenario.node[22].nic.mac1609_4 	SNIRLostPackets 	143
scalar LocScenario.node[22].nic.mac1609_4 	RXTXLostPackets 	0
scalar LocScenario.node[22].nic.mac1609_4 	TotalLostPackets 	143
scalar LocScenario.node[22].nic.mac1609_4 	DroppedPacketsInMac 	0
scalar LocScenario.node[22].nic.mac1609_4 	TooLittleTime 	0
scalar LocScenario.node[22].nic.mac1609_4 	TimesIntoBackoff 	1153
scalar LocScenario.node[22].nic.mac1609_4 	SlotsBackoff 	1710
scalar LocScenario.node[22].nic.mac1609_4 	NumInternalContention 	0
scalar LocScenario.node[22].nic.mac1609_4 	totalBusyTime 	1.479772
scalar LocScenario.node[22].veinsmobility 	startTime 	26.5
scalar LocScenario.node[22].veinsmobility 	totalTime 	44.6
scalar LocScenario.node[22].veinsmobility 	stopTime 	71.150080239211
scalar LocScenario.node[22].veinsmobility 	minSpeed 	10.450183135003
scalar LocScenario.node[22].veinsmobility 	maxSpeed 	10.499981632491
scalar LocScenario.node[22].veinsmobility 	totalDistance 	466.1043396651
scalar LocScenario.node[22].veinsmobility 	totalCO2Emission 	76.905627124976
scalar LocScenario.node[24].appl 	generatedWSMs 	0
scalar LocScenario.node[24].appl 	receivedWSMs 	0
scalar LocScenario.node[24].appl 	generatedBSMs 	845
scalar LocScenario.node[24].appl 	receivedBSMs 	12414
scalar LocScenario.node[24].appl 	generatedWSAs 	0
scalar LocScenario.node[24].appl 	receivedWSAs 	0
scalar LocScenario.node[24].appl 	rmseGPS 	9.7320146870794
scalar LocScenario.node[24].appl 	rmseDRCP 	8.0519022226679
scalar LocScenario.node[24].appl 	timeOutage 	3.7
scalar LocScenario.node[24].nic.phy80211p 	busyTime 	0.031158094672173
scalar LocScenario.node[24].nic.mac1609_4 	ReceivedUnicastPackets 	0
scalar LocScenario.node[24].nic.mac1609_4 	ReceivedBroadcasts 	12414
scalar LocScenario.node[24].nic.mac1609_4 	SentPackets 	845
scalar LocScenario.node[24].nic.mac1609_4 	SNIRLostPackets 	244
scalar LocScenario.node[24].nic.mac1609_4 	RXTXLostPackets 	0
scalar LocScenario.node[24].nic.mac1609_4 	TotalLostPackets 	244
scalar LocScenario.node[24].nic.mac1609_4 	DroppedPacketsInMac 	0
scalar LocScenario.node[24].nic.mac1609_4 	TooLittleTime 	0
scalar LocScenario.node[24].nic.mac1609_4 	TimesIntoBackoff 	845
scalar LocScenario.node[24].nic.mac1609_4 	SlotsBackoff 	1285
scalar LocScenario.node[24].nic.mac1609_4 	NumInternalContention 	0
scalar LocScenario.node[24].nic.mac1609_4 	totalBusyTime 	1.381237
scalar LocScenario.node[24].veinsmobility 	startTime 	28.9
scalar LocScenario.node[24].veinsmobility 	totalTime 	42.2
scalar LocScenario.node[24].veinsmobility 	stopTime 	71.150080239211
scalar LocScenario.node[24].veinsmobility 	minSpeed 	10.450077797729
scalar LocScenario.node[24].veinsmobility 	maxSpeed 	10.499952634517
scalar LocScenario.node[24].veinsmobility 	totalDistance 	441.03570388571
scalar LocScenario.node[24].veinsmobility 	totalCO2Emission 	72.909463545492
scalar LocScenario.node[26].appl 	generatedWSMs 	0
scalar LocScenario.node[26].appl 	receivedWSMs 	0
scalar LocScenario.node[26].appl 	generatedBSMs 	797
scalar LocScenario.node[26].appl 	receivedBSMs 	11324
scalar LocScenario.node[26].appl 	generatedWSAs 	0
scalar LocScenario.node[26].appl 	receivedWSAs 	0
scalar LocScenario.node[26].appl 	rmseGPS 	62.883922198027
scalar LocScenario.node[26].appl 	rmseDRCP 	7.2220719763255
scalar LocScenario.node[26].appl 	timeOutage 	20.8
scalar LocScenario.node[26].nic.phy80211p 	busyTime 	0.030753664550825
scalar LocScenario.node[26].nic.mac1609_4 	ReceivedUnicastPackets 	0
scalar LocScenario.node[26].nic.mac1609_4 	ReceivedBroadcasts 	11324
scalar LocScenario.node[26].nic.mac1609_4 	SentPackets 	797
scalar LocScenario.node[26].nic.mac1609_4 	SNIRLostPackets 	460
scalar LocScenario.node[26].nic.mac1609_4 	RXTXLostPackets 	0
scalar LocScenario.node[26].nic.mac1609_4 	TotalLostPackets 	460
scalar LocScenario.node[26].nic.mac1609_4 	DroppedPacketsInMac 	0
scalar LocScenario.node[26].nic.mac1609_4 	TooLittleTime 	0
scalar LocScenario.node[26].nic.mac1609_4 	TimesIntoBackoff 	797
scalar LocScenario.node[26].nic.mac1609_4 	SlotsBackoff 	1153
scalar LocScenario.node[26].nic.mac1609_4 	NumInternalContention 	0
scalar LocScenario.node[26].nic.mac1609_4 	totalBusyTime 	1.285301
scalar LocScenario.node[26].veinsmobility 	startTime 	31.3
scalar LocScenario.node[26].veinsmobility 	totalTime 	39.8
scalar LocScenario.node[26].veinsmobility 	stopTime 	71.150080239211
scalar LocScenario.node[26].veinsmobility 	minSpeed 	10.450005135685
scalar LocScenario.node[26].veinsmobility 	maxSpeed 	10.499795635231
scalar LocScenario.node[26].veinsmobility 	totalDistance 	417.14731507427
scalar LocScenario.node[26].veinsmobility 	totalCO2Emission 	68.461033701624
scalar LocScenario.node[28].appl 	generatedWSMs 	0
scalar LocScenario.node[28].appl 	receivedWSMs 	0
scalar LocScenario.node[28].appl 	generatedBSMs 	749
scalar LocScenario.node[28].appl 	receivedBSMs 	10497
scalar LocScenario.node[28].appl 	generatedWSAs 	0
scalar LocScenario.node[28].appl 	receivedWSAs 	0
scalar LocScenario.node[28].appl 	rmseGPS 	32.63302545593
scalar LocScenario.node[28].appl 	rmseDRCP 	6.593663462379
scalar LocScenario.node[28].appl 	timeOutage 	14.3
scalar LocScenario.node[28].nic.phy80211p 	busyTime 	0.030427918784723
scalar LocScenario.node[28].nic.mac1609_4 	ReceivedUnicastPackets 	0
scalar LocScenario.node[28].nic.mac1609_4 	ReceivedBroadcasts 	10497
scalar LocScenario.node[28].nic.mac1609_4 	SentPackets 	749
scalar LocScenario.node[28].nic.mac1609_4 	SNIRLostPackets 	460
scalar LocScenario.node[28].nic.mac1609_4 	RXTXLostPackets 	0
scalar LocScenario.node[28].nic.mac1609_4 	TotalLostPackets 	460
scalar LocScenario.node[28].nic.mac1609_4 	DroppedPacketsInMac 	0
scalar LocScenario.node[28].nic.mac1609_4 	TooLittleTime 	0
scalar LocScenario.node[28].nic.mac1609_4 	TimesIntoBackoff 	749
scalar LocScenario.node[28].nic.mac1609_4 	SlotsBackoff 	1106
scalar LocScenario.node[28].nic.mac1609_4 	NumInternalContention 	0
scalar LocScenario.node[28].nic.mac1609_4 	totalBusyTime 	1.194253
scalar LocScenario.node[28].veinsmobility 	startTime 	33.7
scalar LocScenario.node[28].veinsmobility 	totalTime 	37.4
scalar LocScenario.node[28].veinsmobility 	stopTime 	71.150080239211
scalar LocScenario.node[28].veinsmobility 	minSpeed 	10.450044910994
scalar LocScenario.node[28].veinsmobility 	maxSpeed 	10.499806675909
scalar LocScenario.node[28].veinsmobility 	totalDistance 	394.30394907516
scalar LocScenario.node[28].veinsmobility 	totalCO2Emission 	64.430897940413
scalar LocScenario.node[30].appl 	generatedWSMs 	0
scalar LocScenario.node[30].appl 	receivedWSMs 	0
scalar LocScenario.node[30].appl 	generatedBSMs 	700
scalar LocScenario.node[30].appl 	receivedBSMs 	9673
scalar LocScenario.node[30].appl 	generatedWSAs 	0
scalar LocScenario.node[30].appl 	receivedWSAs 	0
scalar LocScenario.node[30].appl 	rmseGPS 	8.5417908124766
scalar LocScenario.node[30].appl 	rmseDRCP 	8.3435879190759
scalar LocScenario.node[30].appl 	timeOutage 	2
scalar LocScenario.node[30].nic.phy80211p 	busyTime 	0.030066464693027
scalar LocScenario.node[30].nic.mac1609_4 	ReceivedUnicastPackets 	0
scalar LocScenario.node[30].nic.mac1609_4 	ReceivedBroadcasts 	9673
scalar LocScenario.node[30].nic.mac1609_4 	SentPackets 	700
scalar LocScenario.node[30].nic.mac1609_4 	SNIRLostPackets 	460
scalar LocScenario.node[30].nic.mac1609_4 	RXTXLostPackets 	0
scalar LocScenario.node[30].nic.mac1609_4 	TotalLostPackets 	460
scalar LocScenario.node[30].nic.mac1609_4 	DroppedPacketsInMac 	0
scalar LocScenario.node[30].nic.mac1609_4 	TooLittleTime 	0
scalar LocScenario.node[30].nic.mac1609_4 	TimesIntoBackoff 	700
scalar LocScenario.node[30].nic.mac1609_4 	SlotsBackoff 	1050
scalar LocScenario.node[30].nic.mac1609_4 	NumInternalContention 	0
scalar LocScenario.node[30].nic.mac1609_4 	totalBusyTime 	1.103412
scalar LocScenario.node[30].veinsmobility 	startTime 	36.1
scalar LocScenario.node[30].veinsmobility 	totalTime 	35
scalar LocScenario.node[30].veinsmobility 	stopTime 	71.150080239211
scalar LocScenario.node[30].veinsmobility 	minSpeed 	10.450014580821
scalar LocScenario.node[30].veinsmobility 	maxSpeed 	10.499868757115
scalar LocScenario.node[30].veinsmobility 	totalDistance 	365.62767849121
scalar LocScenario.node[30].veinsmobility 	totalCO2Emission 	60.351536848456
scalar LocScenario.node[32].appl 	generatedWSMs 	0
scalar LocScenario.node[32].appl 	receivedWSMs 	0
scalar LocScenario.node[32].appl 	generatedBSMs 	653
scalar LocScenario.node[32].appl 	receivedBSMs 	8791
scalar LocScenario.node[32].appl 	generatedWSAs 	0
scalar LocScenario.node[32].appl 	receivedWSAs 	0
scalar LocScenario.node[32].appl 	rmseGPS 	8.7080689597892
scalar LocScenario.node[32].appl 	rmseDRCP 	8.7080689597892
scalar LocScenario.node[32].appl 	timeOutage 	-71.141536263213
scalar LocScenario.node[32].nic.phy80211p 	busyTime 	0.029467125132652
scalar LocScenario.node[32].nic.mac1609_4 	ReceivedUnicastPackets 	0
scalar LocScenario.node[32].nic.mac1609_4 	ReceivedBroadcasts 	8791
scalar LocScenario.node[32].nic.mac1609_4 	SentPackets 	653
scalar LocScenario.node[32].nic.mac1609_4 	SNIRLostPackets 	460
scalar LocScenario.node[32].nic.mac1609_4 	RXTXLostPackets 	0
scalar LocScenario.node[32].nic.mac1609_4 	TotalLostPackets 	460
scalar LocScenario.node[32].nic.mac1609_4 	DroppedPacketsInMac 	0
scalar LocScenario.node[32].nic.mac1609_4 	TooLittleTime 	0
scalar LocScenario.node[32].nic.mac1609_4 	TimesIntoBackoff 	653
scalar LocScenario.node[32].nic.mac1609_4 	SlotsBackoff 	991
scalar LocScenario.node[32].nic.mac1609_4 	NumInternalContention 	0
scalar LocScenario.node[32].nic.mac1609_4 	totalBusyTime 	1.006749
scalar LocScenario.node[32].veinsmobility 	startTime 	38.5
scalar LocScenario.node[32].veinsmobility 	totalTime 	32.6
scalar LocScenario.node[32].veinsmobility 	stopTime 	71.150080239211
scalar LocScenario.node[32].veinsmobility 	minSpeed 	10.45029689885
scalar LocScenario.node[32].veinsmobility 	maxSpeed 	10.499959369411
scalar LocScenario.node[32].veinsmobility 	totalDistance 	341.64213606497
scalar LocScenario.node[32].veinsmobility 	totalCO2Emission 	56.261092994109
scalar LocScenario.node[34].appl 	generatedWSMs 	0
scalar LocScenario.node[34].appl 	receivedWSMs 	0
scalar LocScenario.node[34].appl 	generatedBSMs 	604
scalar LocScenario.node[34].appl 	receivedBSMs 	7970
scalar LocScenario.node[34].appl 	generatedWSAs 	0
scalar LocScenario.node[34].appl 	receivedWSAs 	0
scalar LocScenario.node[34].appl 	rmseGPS 	8.8358293153371
scalar LocScenario.node[34].appl 	rmseDRCP 	8.8358293153371
scalar LocScenario.node[34].appl 	timeOutage 	-71.063065712107
scalar LocScenario.node[34].nic.phy80211p 	busyTime 	0.028941146373065
scalar LocScenario.node[34].nic.mac1609_4 	ReceivedUnicastPackets 	0
scalar LocScenario.node[34].nic.mac1609_4 	ReceivedBroadcasts 	7970
scalar LocScenario.node[34].nic.mac1609_4 	SentPackets 	604
scalar LocScenario.node[34].nic.mac1609_4 	SNIRLostPackets 	448
scalar LocScenario.node[34].nic.mac1609_4 	RXTXLostPackets 	0
scalar LocScenario.node[34].nic.mac1609_4 	TotalLostPackets 	448
scalar LocScenario.node[34].nic.mac1609_4 	DroppedPacketsInMac 	0
scalar LocScenario.node[34].nic.mac1609_4 	TooLittleTime 	0
scalar LocScenario.node[34].nic.mac1609_4 	TimesIntoBackoff 	604
scalar LocScenario.node[34].nic.mac1609_4 	SlotsBackoff 	886
scalar LocScenario.node[34].nic.mac1609_4 	NumInternalContention 	0
scalar LocScenario.node[34].nic.mac1609_4 	totalBusyTime 	0.915596
scalar LocScenario.node[34].veinsmobility 	startTime 	40.9
scalar LocScenario.node[34].veinsmobility 	totalTime 	30.2
scalar LocScenario.node[34].veinsmobility 	stopTime 	71.150080239211
scalar LocScenario.node[34].veinsmobility 	minSpeed 	10.45045111808
scalar LocScenario.node[34].veinsmobility 	maxSpeed 	10.49999637733
scalar LocScenario.node[34].veinsmobility 	totalDistance 	315.4067843788
scalar LocScenario.node[34].veinsmobility 	totalCO2Emission 	52.287698205701
scalar LocScenario.node[36].appl 	generatedWSMs 	0
scalar LocScenario.node[36].appl 	receivedWSMs 	0
scalar LocScenario.node[36].appl 	generatedBSMs 	556
scalar LocScenario.node[36].appl 	receivedBSMs 	7590
scalar LocScenario.node[36].appl 	generatedWSAs 	0
scalar LocScenario.node[36].appl 	receivedWSAs 	0
scalar LocScenario.node[36].appl 	rmseGPS 	8.9279615181996
scalar LocScenario.node[36].appl 	rmseDRCP 	8.9279615181996
scalar LocScenario.node[36].appl 	timeOutage 	-71.090052785911
scalar LocScenario.node[36].nic.phy80211p 	busyTime 	0.028343185844348
scalar LocScenario.node[36].nic.mac1609_4 	ReceivedUnicastPackets 	0
scalar LocScenario.node[36].nic.mac1609_4 	ReceivedBroadcasts 	7590
scalar LocScenario.node[36].nic.mac1609_4 	SentPackets 	556
scalar LocScenario.node[36].nic.mac1609_4 	SNIRLostPackets 	0
scalar LocScenario.node[36].nic.mac1609_4 	RXTXLostPackets 	0
scalar LocScenario.node[36].nic.mac1609_4 	TotalLostPackets 	0
scalar LocScenario.node[36].nic.mac1609_4 	DroppedPacketsInMac 	0
scalar LocScenario.node[36].nic.mac1609_4 	TooLittleTime 	0
scalar LocScenario.node[36].nic.mac1609_4 	TimesIntoBackoff 	556
scalar LocScenario.node[36].nic.mac1609_4 	SlotsBackoff 	850
scalar LocScenario.node[36].nic.mac1609_4 	NumInternalContention 	0
scalar LocScenario.node[36].nic.mac1609_4 	totalBusyTime 	0.84774
scalar LocScenario.node[36].veinsmobility 	startTime 	43.3
scalar LocScenario.node[36].veinsmobility 	totalTime 	27.8
scalar LocScenario.node[36].veinsmobility 	stopTime 	71.150080239211
scalar LocScenario.node[36].veinsmobility 	minSpeed 	10.450298868283
scalar LocScenario.node[36].veinsmobility 	maxSpeed 	10.499957467918
scalar LocScenario.node[36].veinsmobility 	totalDistance 	290.30068306259
scalar LocScenario.node[36].veinsmobility 	totalCO2Emission 	47.434415882198
scalar LocScenario.node[38].appl 	generatedWSMs 	0
scalar LocScenario.node[38].appl 	receivedWSMs 	0
scalar LocScenario.node[38].appl 	generatedBSMs 	508
scalar LocScenario.node[38].appl 	receivedBSMs 	6748
scalar LocScenario.node[38].appl 	generatedWSAs 	0
scalar LocScenario.node[38].appl 	receivedWSAs 	0
scalar LocScenario.node[38].appl 	rmseGPS 	15.870282210995
scalar LocScenario.node[38].appl 	rmseDRCP 	7.394915481279
scalar LocScenario.node[38].appl 	timeOutage 	7.2
scalar LocScenario.node[38].nic.phy80211p 	busyTime 	0.027575237225332
scalar LocScenario.node[38].nic.mac1609_4 	ReceivedUnicastPackets 	0
scalar LocScenario.node[38].nic.mac1609_4 	ReceivedBroadcasts 	6748
scalar LocScenario.node[38].nic.mac1609_4 	SentPackets 	508
scalar LocScenario.node[38].nic.mac1609_4 	SNIRLostPackets 	0
scalar LocScenario.node[38].nic.mac1609_4 	RXTXLostPackets 	0
scalar LocScenario.node[38].nic.mac1609_4 	TotalLostPackets 	0
scalar LocScenario.node[38].nic.mac1609_4 	DroppedPacketsInMac 	0
scalar LocScenario.node[38].nic.mac1609_4 	TooLittleTime 	0
scalar LocScenario.node[38].nic.mac1609_4 	TimesIntoBackoff 	508
scalar LocScenario.node[38].nic.mac1609_4 	SlotsBackoff 	742
scalar LocScenario.node[38].nic.mac1609_4 	NumInternalContention 	0
scalar LocScenario.node[38].nic.mac1609_4 	totalBusyTime 	0.755132
scalar LocScenario.node[38].veinsmobility 	startTime 	45.7
scalar LocScenario.node[38].veinsmobility 	totalTime 	25.4
scalar LocScenario.node[38].veinsmobility 	stopTime 	71.150080239211
scalar LocScenario.node[38].veinsmobility 	minSpeed 	10.450100909185
scalar LocScenario.node[38].veinsmobility 	maxSpeed 	10.499931529502
scalar LocScenario.node[38].veinsmobility 	totalDistance 	268.54370853378
scalar LocScenario.node[38].veinsmobility 	totalCO2Emission 	43.545113054694
scalar LocScenario.node[4].appl 	generatedWSMs 	0
scalar LocScenario.node[4].appl 	receivedWSMs 	0
scalar LocScenario.node[4].appl 	generatedBSMs 	1324
scalar LocScenario.node[4].appl 	receivedBSMs 	12143
scalar LocScenario.node[4].appl 	generatedWSAs 	0
scalar LocScenario.node[4].appl 	receivedWSAs 	0
scalar LocScenario.node[4].appl 	rmseGPS 	172.35257451353
scalar LocScenario.node[4].appl 	rmseDRCP 	5.3143833858569
scalar LocScenario.node[4].appl 	timeOutage 	46.2
scalar LocScenario.node[4].nic.phy80211p 	busyTime 	0.019063765590018
scalar LocScenario.node[4].nic.mac1609_4 	ReceivedUnicastPackets 	0
scalar LocScenario.node[4].nic.mac1609_4 	ReceivedBroadcasts 	12143
scalar LocScenario.node[4].nic.mac1609_4 	SentPackets 	1324
scalar LocScenario.node[4].nic.mac1609_4 	SNIRLostPackets 	0
scalar LocScenario.node[4].nic.mac1609_4 	RXTXLostPackets 	0
scalar LocScenario.node[4].nic.mac1609_4 	TotalLostPackets 	0
scalar LocScenario.node[4].nic.mac1609_4 	DroppedPacketsInMac 	0
scalar LocScenario.node[4].nic.mac1609_4 	TooLittleTime 	0
scalar LocScenario.node[4].nic.mac1609_4 	TimesIntoBackoff 	1324
scalar LocScenario.node[4].nic.mac1609_4 	SlotsBackoff 	1995
scalar LocScenario.node[4].nic.mac1609_4 	NumInternalContention 	0
scalar LocScenario.node[4].nic.mac1609_4 	totalBusyTime 	1.401892
scalar LocScenario.node[4].veinsmobility 	startTime 	4.9
scalar LocScenario.node[4].veinsmobility 	totalTime 	66.2
scalar LocScenario.node[4].veinsmobility 	stopTime 	71.150080239211
scalar LocScenario.node[4].veinsmobility 	minSpeed 	10.45003960008
scalar LocScenario.node[4].veinsmobility 	maxSpeed 	10.499997232482
scalar LocScenario.node[4].veinsmobility 	totalDistance 	696.44060652552
scalar LocScenario.node[4].veinsmobility 	totalCO2Emission 	114.20935482344
scalar LocScenario.node[40].appl 	generatedWSMs 	0
scalar LocScenario.node[40].appl 	receivedWSMs 	0
scalar LocScenario.node[40].appl 	generatedBSMs 	461
scalar LocScenario.node[40].appl 	receivedBSMs 	5930
scalar LocScenario.node[40].appl 	generatedWSAs 	0
scalar LocScenario.node[40].appl 	receivedWSAs 	0
scalar LocScenario.node[40].appl 	rmseGPS 	8.7510126591482
scalar LocScenario.node[40].appl 	rmseDRCP 	8.7510126591482
scalar LocScenario.node[40].appl 	timeOutage 	-71.110374573874
scalar LocScenario.node[40].nic.phy80211p 	busyTime 	0.026755655234156
scalar LocScenario.node[40].nic.mac1609_4 	ReceivedUnicastPackets 	0
scalar LocScenario.node[40].nic.mac1609_4 	ReceivedBroadcasts 	5930
scalar LocScenario.node[40].nic.mac1609_4 	SentPackets 	461
scalar LocScenario.node[40].nic.mac1609_4 	SNIRLostPackets 	0
scalar LocScenario.node[40].nic.mac1609_4 	RXTXLostPackets 	0
scalar LocScenario.node[40].nic.mac1609_4 	TotalLostPackets 	0
scalar LocScenario.node[40].nic.mac1609_4 	DroppedPacketsInMac 	0
scalar LocScenario.node[40].nic.mac1609_4 	TooLittleTime 	0
scalar LocScenario.node[40].nic.mac1609_4 	TimesIntoBackoff 	461
scalar LocScenario.node[40].nic.mac1609_4 	SlotsBackoff 	678
scalar LocScenario.node[40].nic.mac1609_4 	NumInternalContention 	0
scalar LocScenario.node[40].nic.mac1609_4 	totalBusyTime 	0.665125
scalar LocScenario.node[40].veinsmobility 	startTime 	48.1
scalar LocScenario.node[40].veinsmobility 	totalTime 	23
scalar LocScenario.node[40].veinsmobility 	stopTime 	71.150080239211
scalar LocScenario.node[40].veinsmobility 	minSpeed 	10.450135778706
scalar LocScenario.node[40].veinsmobility 	maxSpeed 	10.499989652284
scalar LocScenario.node[40].veinsmobility 	totalDistance 	241.02214612198
scalar LocScenario.node[40].veinsmobility 	totalCO2Emission 	39.599341295204
scalar LocScenario.node[42].appl 	generatedWSMs 	0
scalar LocScenario.node[42].appl 	receivedWSMs 	0
scalar LocScenario.node[42].appl 	generatedBSMs 	412
scalar LocScenario.node[42].appl 	receivedBSMs 	5116
scalar LocScenario.node[42].appl 	generatedWSAs 	0
scalar LocScenario.node[42].appl 	receivedWSAs 	0
scalar LocScenario.node[42].appl 	rmseGPS 	8.8052586668851
scalar LocScenario.node[42].appl 	rmseDRCP 	8.8052586668851
scalar LocScenario.node[42].appl 	timeOutage 	-71.090488582989
scalar LocScenario.node[42].nic.phy80211p 	busyTime 	0.025765711020806
scalar LocScenario.node[42].nic.mac1609_4 	ReceivedUnicastPackets 	0
scalar LocScenario.node[42].nic.mac1609_4 	ReceivedBroadcasts 	5116
scalar LocScenario.node[42].nic.mac1609_4 	SentPackets 	412
scalar LocScenario.node[42].nic.mac1609_4 	SNIRLostPackets 	0
scalar LocScenario.node[42].nic.mac1609_4 	RXTXLostPackets 	0
scalar LocScenario.node[42].nic.mac1609_4 	TotalLostPackets 	0
scalar LocScenario.node[42].nic.mac1609_4 	DroppedPacketsInMac 	0
scalar LocScenario.node[42].nic.mac1609_4 	TooLittleTime 	0
scalar LocScenario.node[42].nic.mac1609_4 	TimesIntoBackoff 	412
scalar LocScenario.node[42].nic.mac1609_4 	SlotsBackoff 	601
scalar LocScenario.node[42].nic.mac1609_4 	NumInternalContention 	0
scalar LocScenario.node[42].nic.mac1609_4 	totalBusyTime 	0.575324
scalar LocScenario.node[42].veinsmobility 	startTime 	50.5
scalar LocScenario.node[42].veinsmobility 	totalTime 	20.6
scalar LocScenario.node[42].veinsmobility 	stopTime 	71.150080239211
scalar LocScenario.node[42].veinsmobility 	minSpeed 	10.45021687051
scalar LocScenario.node[42].veinsmobility 	maxSpeed 	10.499772096635
scalar LocScenario.node[42].veinsmobility 	totalDistance 	215.82032818384
scalar LocScenario.node[42].veinsmobility 	totalCO2Emission 	35.252576466829
scalar LocScenario.node[44].appl 	generatedWSMs 	0
scalar LocScenario.node[44].appl 	receivedWSMs 	0
scalar LocScenario.node[44].appl 	generatedBSMs 	364
scalar LocScenario.node[44].appl 	receivedBSMs 	4319
scalar LocScenario.node[44].appl 	generatedWSAs 	0
scalar LocScenario.node[44].appl 	receivedWSAs 	0
scalar LocScenario.node[44].appl 	rmseGPS 	38.527823740897
scalar LocScenario.node[44].appl 	rmseDRCP 	5.1336360516118
scalar LocScenario.node[44].appl 	timeOutage 	11.2
scalar LocScenario.node[44].nic.phy80211p 	busyTime 	0.024612275349612
scalar LocScenario.node[44].nic.mac1609_4 	ReceivedUnicastPackets 	0
scalar LocScenario.node[44].nic.mac1609_4 	ReceivedBroadcasts 	4319
scalar LocScenario.node[44].nic.mac1609_4 	SentPackets 	364
scalar LocScenario.node[44].nic.mac1609_4 	SNIRLostPackets 	0
scalar LocScenario.node[44].nic.mac1609_4 	RXTXLostPackets 	0
scalar LocScenario.node[44].nic.mac1609_4 	TotalLostPackets 	0
scalar LocScenario.node[44].nic.mac1609_4 	DroppedPacketsInMac 	0
scalar LocScenario.node[44].nic.mac1609_4 	TooLittleTime 	0
scalar LocScenario.node[44].nic.mac1609_4 	TimesIntoBackoff 	364
scalar LocScenario.node[44].nic.mac1609_4 	SlotsBackoff 	551
scalar LocScenario.node[44].nic.mac1609_4 	NumInternalContention 	0
scalar LocScenario.node[44].nic.mac1609_4 	totalBusyTime 	0.487396
scalar LocScenario.node[44].veinsmobility 	startTime 	52.9
scalar LocScenario.node[44].veinsmobility 	totalTime 	18.2
scalar LocScenario.node[44].veinsmobility 	stopTime 	71.150080239211
scalar LocScenario.node[44].veinsmobility 	minSpeed 	10.450179714826
scalar LocScenario.node[44].veinsmobility 	maxSpeed 	10.499963665148
scalar LocScenario.node[44].veinsmobility 	totalDistance 	190.65959124925
scalar LocScenario.node[44].veinsmobility 	totalCO2Emission 	31.170873348987
scalar LocScenario.node[46].appl 	generatedWSMs 	0
scalar LocScenario.node[46].appl 	receivedWSMs 	0
scalar LocScenario.node[46].appl 	generatedBSMs 	316
scalar LocScenario.node[46].appl 	receivedBSMs 	3570
scalar LocScenario.node[46].appl 	generatedWSAs 	0
scalar LocScenario.node[46].appl 	receivedWSAs 	0
scalar LocScenario.node[46].appl 	rmseGPS 	8.7686518962541
scalar LocScenario.node[46].appl 	rmseDRCP 	8.7686518962541
scalar LocScenario.node[46].appl 	timeOutage 	-71.077440368687
scalar LocScenario.node[46].nic.phy80211p 	busyTime 	0.023424487093856
scalar LocScenario.node[46].nic.mac1609_4 	ReceivedUnicastPackets 	0
scalar LocScenario.node[46].nic.mac1609_4 	ReceivedBroadcasts 	3570
scalar LocScenario.node[46].nic.mac1609_4 	SentPackets 	316
scalar LocScenario.node[46].nic.mac1609_4 	SNIRLostPackets 	0
scalar LocScenario.node[46].nic.mac1609_4 	RXTXLostPackets 	0
scalar LocScenario.node[46].nic.mac1609_4 	TotalLostPackets 	0
scalar LocScenario.node[46].nic.mac1609_4 	DroppedPacketsInMac 	0
scalar LocScenario.node[46].nic.mac1609_4 	TooLittleTime 	0
scalar LocScenario.node[46].nic.mac1609_4 	TimesIntoBackoff 	316
scalar LocScenario.node[46].nic.mac1609_4 	SlotsBackoff 	467
scalar LocScenario.node[46].nic.mac1609_4 	NumInternalContention 	0
scalar LocScenario.node[46].nic.mac1609_4 	totalBusyTime 	0.40446
scalar LocScenario.node[46].veinsmobility 	startTime 	55.3
scalar LocScenario.node[46].veinsmobility 	totalTime 	15.8
scalar LocScenario.node[46].veinsmobility 	stopTime 	71.150080239211
scalar LocScenario.node[46].veinsmobility 	minSpeed 	10.450057258143
scalar LocScenario.node[46].veinsmobility 	maxSpeed 	10.499744161579
scalar LocScenario.node[46].veinsmobility 	totalDistance 	167.91047283738
scalar LocScenario.node[46].veinsmobility 	totalCO2Emission 	27.046935106418
scalar LocScenario.node[48].appl 	generatedWSMs 	0
scalar LocScenario.node[48].appl 	receivedWSMs 	0
scalar LocScenario.node[48].appl 	generatedBSMs 	268
scalar LocScenario.node[48].appl 	receivedBSMs 	2869
scalar LocScenario.node[48].appl 	generatedWSAs 	0
scalar LocScenario.node[48].appl 	receivedWSAs 	0
scalar LocScenario.node[48].appl 	rmseGPS 	9.3325666393101
scalar LocScenario.node[48].appl 	rmseDRCP 	9.3325666393101
scalar LocScenario.node[48].appl 	timeOutage 	-71.086785869347
scalar LocScenario.node[48].nic.phy80211p 	busyTime 	0.022183956875598
scalar LocScenario.node[48].nic.mac1609_4 	ReceivedUnicastPackets 	0
scalar LocScenario.node[48].nic.mac1609_4 	ReceivedBroadcasts 	2869
scalar LocScenario.node[48].nic.mac1609_4 	SentPackets 	268
scalar LocScenario.node[48].nic.mac1609_4 	SNIRLostPackets 	0
scalar LocScenario.node[48].nic.mac1609_4 	RXTXLostPackets 	0
scalar LocScenario.node[48].nic.mac1609_4 	TotalLostPackets 	0
scalar LocScenario.node[48].nic.mac1609_4 	DroppedPacketsInMac 	0
scalar LocScenario.node[48].nic.mac1609_4 	TooLittleTime 	0
scalar LocScenario.node[48].nic.mac1609_4 	TimesIntoBackoff 	268
scalar LocScenario.node[48].nic.mac1609_4 	SlotsBackoff 	424
scalar LocScenario.node[48].nic.mac1609_4 	NumInternalContention 	0
scalar LocScenario.node[48].nic.mac1609_4 	totalBusyTime 	0.326516
scalar LocScenario.node[48].veinsmobility 	startTime 	57.7
scalar LocScenario.node[48].veinsmobility 	totalTime 	13.4
scalar LocScenario.node[48].veinsmobility 	stopTime 	71.150080239211
scalar LocScenario.node[48].veinsmobility 	minSpeed 	10.450694210012
scalar LocScenario.node[48].veinsmobility 	maxSpeed 	10.499998998502
scalar LocScenario.node[48].veinsmobility 	totalDistance 	142.81428198283
scalar LocScenario.node[48].veinsmobility 	totalCO2Emission 	22.907080316714
scalar LocScenario.node[50].appl 	generatedWSMs 	0
scalar LocScenario.node[50].appl 	receivedWSMs 	0
scalar LocScenario.node[50].appl 	generatedBSMs 	220
scalar LocScenario.node[50].appl 	receivedBSMs 	2225
scalar LocScenario.node[50].appl 	generatedWSAs 	0
scalar LocScenario.node[50].appl 	receivedWSAs 	0
scalar LocScenario.node[50].appl 	rmseGPS 	9.0923420947711
scalar LocScenario.node[50].appl 	rmseDRCP 	9.0923420947711
scalar LocScenario.node[50].appl 	timeOutage 	-71.062289237697
scalar LocScenario.node[50].nic.phy80211p 	busyTime 	0.020941024408029
scalar LocScenario.node[50].nic.mac1609_4 	ReceivedUnicastPackets 	0
scalar LocScenario.node[50].nic.mac1609_4 	ReceivedBroadcasts 	2225
scalar LocScenario.node[50].nic.mac1609_4 	SentPackets 	220
scalar LocScenario.node[50].nic.mac1609_4 	SNIRLostPackets 	0
scalar LocScenario.node[50].nic.mac1609_4 	RXTXLostPackets 	0
scalar LocScenario.node[50].nic.mac1609_4 	TotalLostPackets 	0
scalar LocScenario.node[50].nic.mac1609_4 	DroppedPacketsInMac 	0
scalar LocScenario.node[50].nic.mac1609_4 	TooLittleTime 	0
scalar LocScenario.node[50].nic.mac1609_4 	TimesIntoBackoff 	220
scalar LocScenario.node[50].nic.mac1609_4 	SlotsBackoff 	324
scalar LocScenario.node[50].nic.mac1609_4 	NumInternalContention 	0
scalar LocScenario.node[50].nic.mac1609_4 	totalBusyTime 	0.2545
scalar LocScenario.node[50].veinsmobility 	startTime 	60.1
scalar LocScenario.node[50].veinsmobility 	totalTime 	11
scalar LocScenario.node[50].veinsmobility 	stopTime 	71.150080239211
scalar LocScenario.node[50].veinsmobility 	minSpeed 	10.450770337135
scalar LocScenario.node[50].veinsmobility 	maxSpeed 	10.499690114625
scalar LocScenario.node[50].veinsmobility 	totalDistance 	117.62305103895
scalar LocScenario.node[50].veinsmobility 	totalCO2Emission 	18.869533878148
scalar LocScenario.node[52].appl 	generatedWSMs 	0
scalar LocScenario.node[52].appl 	receivedWSMs 	0
scalar LocScenario.node[52].appl 	generatedBSMs 	172
scalar LocScenario.node[52].appl 	receivedBSMs 	1626
scalar LocScenario.node[52].appl 	generatedWSAs 	0
scalar LocScenario.node[52].appl 	receivedWSAs 	0
scalar LocScenario.node[52].appl 	rmseGPS 	8.8485838721667
scalar LocScenario.node[52].appl 	rmseDRCP 	8.8485838721667
scalar LocScenario.node[52].appl 	timeOutage 	-71.090825932752
scalar LocScenario.node[52].nic.phy80211p 	busyTime 	0.019549414031265
scalar LocScenario.node[52].nic.mac1609_4 	ReceivedUnicastPackets 	0
scalar LocScenario.node[52].nic.mac1609_4 	ReceivedBroadcasts 	1626
scalar LocScenario.node[52].nic.mac1609_4 	SentPackets 	172
scalar LocScenario.node[52].nic.mac1609_4 	SNIRLostPackets 	0
scalar LocScenario.node[52].nic.mac1609_4 	RXTXLostPackets 	0
scalar LocScenario.node[52].nic.mac1609_4 	TotalLostPackets 	0
scalar LocScenario.node[52].nic.mac1609_4 	DroppedPacketsInMac 	0
scalar LocScenario.node[52].nic.mac1609_4 	TooLittleTime 	0
scalar LocScenario.node[52].nic.mac1609_4 	TimesIntoBackoff 	172
scalar LocScenario.node[52].nic.mac1609_4 	SlotsBackoff 	255
scalar LocScenario.node[52].nic.mac1609_4 	NumInternalContention 	0
scalar LocScenario.node[52].nic.mac1609_4 	totalBusyTime 	0.187164
scalar LocScenario.node[52].veinsmobility 	startTime 	62.5
scalar LocScenario.node[52].veinsmobility 	totalTime 	8.6
scalar LocScenario.node[52].veinsmobility 	stopTime 	71.150080239211
scalar LocScenario.node[52].veinsmobility 	minSpeed 	10.45042458328
scalar LocScenario.node[52].veinsmobility 	maxSpeed 	10.499935147271
scalar LocScenario.node[52].veinsmobility 	totalDistance 	92.523906466614
scalar LocScenario.node[52].veinsmobility 	totalCO2Emission 	14.496484622033
scalar LocScenario.node[54].appl 	generatedWSMs 	0
scalar LocScenario.node[54].appl 	receivedWSMs 	0
scalar LocScenario.node[54].appl 	generatedBSMs 	125
scalar LocScenario.node[54].appl 	receivedBSMs 	1106
scalar LocScenario.node[54].appl 	generatedWSAs 	0
scalar LocScenario.node[54].appl 	receivedWSAs 	0
scalar LocScenario.node[54].appl 	rmseGPS 	8.6456363479514
scalar LocScenario.node[54].appl 	rmseDRCP 	8.6456363479514
scalar LocScenario.node[54].appl 	timeOutage 	-71.109577041096
scalar LocScenario.node[54].nic.phy80211p 	busyTime 	0.018403603729498
scalar LocScenario.node[54].nic.mac1609_4 	ReceivedUnicastPackets 	0
scalar LocScenario.node[54].nic.mac1609_4 	ReceivedBroadcasts 	1106
scalar LocScenario.node[54].nic.mac1609_4 	SentPackets 	125
scalar LocScenario.node[54].nic.mac1609_4 	SNIRLostPackets 	0
scalar LocScenario.node[54].nic.mac1609_4 	RXTXLostPackets 	0
scalar LocScenario.node[54].nic.mac1609_4 	TotalLostPackets 	0
scalar LocScenario.node[54].nic.mac1609_4 	DroppedPacketsInMac 	0
scalar LocScenario.node[54].nic.mac1609_4 	TooLittleTime 	0
scalar LocScenario.node[54].nic.mac1609_4 	TimesIntoBackoff 	125
scalar LocScenario.node[54].nic.mac1609_4 	SlotsBackoff 	167
scalar LocScenario.node[54].nic.mac1609_4 	NumInternalContention 	0
scalar LocScenario.node[54].nic.mac1609_4 	totalBusyTime 	0.128149
scalar LocScenario.node[54].veinsmobility 	startTime 	64.9
scalar LocScenario.node[54].veinsmobility 	totalTime 	6.2
scalar LocScenario.node[54].veinsmobility 	stopTime 	71.150080239211
scalar LocScenario.node[54].veinsmobility 	minSpeed 	10.451855096477
scalar LocScenario.node[54].veinsmobility 	maxSpeed 	10.49914805725
scalar LocScenario.node[54].veinsmobility 	totalDistance 	64.950900292565
scalar LocScenario.node[54].veinsmobility 	totalCO2Emission 	10.55931952369
scalar LocScenario.node[56].appl 	generatedWSMs 	0
scalar LocScenario.node[56].appl 	receivedWSMs 	0
scalar LocScenario.node[56].appl 	generatedBSMs 	76
scalar LocScenario.node[56].appl 	receivedBSMs 	647
scalar LocScenario.node[56].appl 	generatedWSAs 	0
scalar LocScenario.node[56].appl 	receivedWSAs 	0
scalar LocScenario.node[56].appl 	rmseGPS 	10.127926573062
scalar LocScenario.node[56].appl 	rmseDRCP 	10.127926573062
scalar LocScenario.node[56].appl 	timeOutage 	-71.050718973437
scalar LocScenario.node[56].nic.phy80211p 	busyTime 	0.017477038352268
scalar LocScenario.node[56].nic.mac1609_4 	ReceivedUnicastPackets 	0
scalar LocScenario.node[56].nic.mac1609_4 	ReceivedBroadcasts 	647
scalar LocScenario.node[56].nic.mac1609_4 	SentPackets 	76
scalar LocScenario.node[56].nic.mac1609_4 	SNIRLostPackets 	0
scalar LocScenario.node[56].nic.mac1609_4 	RXTXLostPackets 	0
scalar LocScenario.node[56].nic.mac1609_4 	TotalLostPackets 	0
scalar LocScenario.node[56].nic.mac1609_4 	DroppedPacketsInMac 	0
scalar LocScenario.node[56].nic.mac1609_4 	TooLittleTime 	0
scalar LocScenario.node[56].nic.mac1609_4 	TimesIntoBackoff 	76
scalar LocScenario.node[56].nic.mac1609_4 	SlotsBackoff 	124
scalar LocScenario.node[56].nic.mac1609_4 	NumInternalContention 	0
scalar LocScenario.node[56].nic.mac1609_4 	totalBusyTime 	0.075268
scalar LocScenario.node[56].veinsmobility 	startTime 	67.3
scalar LocScenario.node[56].veinsmobility 	totalTime 	3.8
scalar LocScenario.node[56].veinsmobility 	stopTime 	71.150080239211
scalar LocScenario.node[56].veinsmobility 	minSpeed 	10.453506816993
scalar LocScenario.node[56].veinsmobility 	maxSpeed 	10.499280258163
scalar LocScenario.node[56].veinsmobility 	totalDistance 	39.634925806853
scalar LocScenario.node[56].veinsmobility 	totalCO2Emission 	6.4378237505247
scalar LocScenario.node[58].appl 	generatedWSMs 	0
scalar LocScenario.node[58].appl 	receivedWSMs 	0
scalar LocScenario.node[58].appl 	generatedBSMs 	29
scalar LocScenario.node[58].appl 	receivedBSMs 	233
scalar LocScenario.node[58].appl 	generatedWSAs 	0
scalar LocScenario.node[58].appl 	receivedWSAs 	0
scalar LocScenario.node[58].appl 	rmseGPS 	9.1563893491587
scalar LocScenario.node[58].appl 	rmseDRCP 	9.1563893491587
scalar LocScenario.node[58].appl 	timeOutage 	-71.131806038646
scalar LocScenario.node[58].nic.phy80211p 	busyTime 	0.016710799405959
scalar LocScenario.node[58].nic.mac1609_4 	ReceivedUnicastPackets 	0
scalar LocScenario.node[58].nic.mac1609_4 	ReceivedBroadcasts 	233
scalar LocScenario.node[58].nic.mac1609_4 	SentPackets 	29
scalar LocScenario.node[58].nic.mac1609_4 	SNIRLostPackets 	0
scalar LocScenario.node[58].nic.mac1609_4 	RXTXLostPackets 	0
scalar LocScenario.node[58].nic.mac1609_4 	TotalLostPackets 	0
scalar LocScenario.node[58].nic.mac1609_4 	DroppedPacketsInMac 	0
scalar LocScenario.node[58].nic.mac1609_4 	TooLittleTime 	0
scalar LocScenario.node[58].nic.mac1609_4 	TimesIntoBackoff 	29
scalar LocScenario.node[58].nic.mac1609_4 	SlotsBackoff 	47
scalar LocScenario.node[58].nic.mac1609_4 	NumInternalContention 	0
scalar LocScenario.node[58].nic.mac1609_4 	totalBusyTime 	0.027277
scalar LocScenario.node[58].veinsmobility 	startTime 	69.7
scalar LocScenario.node[58].veinsmobility 	totalTime 	1.4
scalar LocScenario.node[58].veinsmobility 	stopTime 	71.150080239211
scalar LocScenario.node[58].veinsmobility 	minSpeed 	10.452894313843
scalar LocScenario.node[58].veinsmobility 	maxSpeed 	10.498172980582
scalar LocScenario.node[58].veinsmobility 	totalDistance 	14.668699918113
scalar LocScenario.node[58].veinsmobility 	totalCO2Emission 	2.2309618289539
scalar LocScenario.node[6].appl 	generatedWSMs 	0
scalar LocScenario.node[6].appl 	receivedWSMs 	0
scalar LocScenario.node[6].appl 	generatedBSMs 	1277
scalar LocScenario.node[6].appl 	receivedBSMs 	12945
scalar LocScenario.node[6].appl 	generatedWSAs 	0
scalar LocScenario.node[6].appl 	receivedWSAs 	0
scalar LocScenario.node[6].appl 	rmseGPS 	45.208265690379
scalar LocScenario.node[6].appl 	rmseDRCP 	9.9885081856045
scalar LocScenario.node[6].appl 	timeOutage 	21.7
scalar LocScenario.node[6].nic.phy80211p 	busyTime 	0.021085016572517
scalar LocScenario.node[6].nic.mac1609_4 	ReceivedUnicastPackets 	0
scalar LocScenario.node[6].nic.mac1609_4 	ReceivedBroadcasts 	12945
scalar LocScenario.node[6].nic.mac1609_4 	SentPackets 	1277
scalar LocScenario.node[6].nic.mac1609_4 	SNIRLostPackets 	0
scalar LocScenario.node[6].nic.mac1609_4 	RXTXLostPackets 	0
scalar LocScenario.node[6].nic.mac1609_4 	TotalLostPackets 	0
scalar LocScenario.node[6].nic.mac1609_4 	DroppedPacketsInMac 	0
scalar LocScenario.node[6].nic.mac1609_4 	TooLittleTime 	0
scalar LocScenario.node[6].nic.mac1609_4 	TimesIntoBackoff 	1276
scalar LocScenario.node[6].nic.mac1609_4 	SlotsBackoff 	1891
scalar LocScenario.node[6].nic.mac1609_4 	NumInternalContention 	0
scalar LocScenario.node[6].nic.mac1609_4 	totalBusyTime 	1.48026
scalar LocScenario.node[6].veinsmobility 	startTime 	7.3
scalar LocScenario.node[6].veinsmobility 	totalTime 	63.8
scalar LocScenario.node[6].veinsmobility 	stopTime 	71.150080239211
scalar LocScenario.node[6].veinsmobility 	minSpeed 	10.450030720793
scalar LocScenario.node[6].veinsmobility 	maxSpeed 	10.499893730227
scalar LocScenario.node[6].veinsmobility 	totalDistance 	667.66650176123
scalar LocScenario.node[6].veinsmobility 	totalCO2Emission 	109.97441502846
scalar LocScenario.node[8].appl 	generatedWSMs 	0
scalar LocScenario.node[8].appl 	receivedWSMs 	0
scalar LocScenario.node[8].appl 	generatedBSMs 	1228
scalar LocScenario.node[8].appl 	receivedBSMs 	13589
scalar LocScenario.node[8].appl 	generatedWSAs 	0
scalar LocScenario.node[8].appl 	receivedWSAs 	0
scalar LocScenario.node[8].appl 	rmseGPS 	129.80526009595
scalar LocScenario.node[8].appl 	rmseDRCP 	5.2969246652123
scalar LocScenario.node[8].appl 	timeOutage 	38.7
scalar LocScenario.node[8].nic.phy80211p 	busyTime 	0.023000132701186
scalar LocScenario.node[8].nic.mac1609_4 	ReceivedUnicastPackets 	0
scalar LocScenario.node[8].nic.mac1609_4 	ReceivedBroadcasts 	13589
scalar LocScenario.node[8].nic.mac1609_4 	SentPackets 	1228
scalar LocScenario.node[8].nic.mac1609_4 	SNIRLostPackets 	0
scalar LocScenario.node[8].nic.mac1609_4 	RXTXLostPackets 	0
scalar LocScenario.node[8].nic.mac1609_4 	TotalLostPackets 	0
scalar LocScenario.node[8].nic.mac1609_4 	DroppedPacketsInMac 	0
scalar LocScenario.node[8].nic.mac1609_4 	TooLittleTime 	0
scalar LocScenario.node[8].nic.mac1609_4 	TimesIntoBackoff 	1228
scalar LocScenario.node[8].nic.mac1609_4 	SlotsBackoff 	1900
scalar LocScenario.node[8].nic.mac1609_4 	NumInternalContention 	0
scalar LocScenario.node[8].nic.mac1609_4 	totalBusyTime 	1.542196
scalar LocScenario.node[8].veinsmobility 	startTime 	9.7
scalar LocScenario.node[8].veinsmobility 	totalTime 	61.4
scalar LocScenario.node[8].veinsmobility 	stopTime 	71.150080239211
scalar LocScenario.node[8].veinsmobility 	minSpeed 	10.450001799117
scalar LocScenario.node[8].veinsmobility 	maxSpeed 	10.499971519224
scalar LocScenario.node[8].veinsmobility 	totalDistance 	645.96725124836
scalar LocScenario.node[8].veinsmobility 	totalCO2Emission 	105.9335533936
scalar LocScenario.node[10].appl 	generatedWSMs 	0
scalar LocScenario.node[10].appl 	receivedWSMs 	0
scalar LocScenario.node[10].appl 	generatedBSMs 	1181
scalar LocScenario.node[10].appl 	receivedBSMs 	14184
scalar LocScenario.node[10].appl 	generatedWSAs 	0
scalar LocScenario.node[10].appl 	receivedWSAs 	0
scalar LocScenario.node[10].appl 	rmseGPS 	54.618829447749
scalar LocScenario.node[10].appl 	rmseDRCP 	7.1843652042274
scalar LocScenario.node[10].appl 	timeOutage 	22.5
scalar LocScenario.node[10].nic.phy80211p 	busyTime 	0.024982861903392
scalar LocScenario.node[10].nic.mac1609_4 	ReceivedUnicastPackets 	0
scalar LocScenario.node[10].nic.mac1609_4 	ReceivedBroadcasts 	14184
scalar LocScenario.node[10].nic.mac1609_4 	SentPackets 	1181
scalar LocScenario.node[10].nic.mac1609_4 	SNIRLostPackets 	0
scalar LocScenario.node[10].nic.mac1609_4 	RXTXLostPackets 	0
scalar LocScenario.node[10].nic.mac1609_4 	TotalLostPackets 	0
scalar LocScenario.node[10].nic.mac1609_4 	DroppedPacketsInMac 	0
scalar LocScenario.node[10].nic.mac1609_4 	TooLittleTime 	0
scalar LocScenario.node[10].nic.mac1609_4 	TimesIntoBackoff 	1181
scalar LocScenario.node[10].nic.mac1609_4 	SlotsBackoff 	1816
scalar LocScenario.node[10].nic.mac1609_4 	NumInternalContention 	0
scalar LocScenario.node[10].nic.mac1609_4 	totalBusyTime 	1.599141
scalar LocScenario.node[10].veinsmobility 	startTime 	12.1
scalar LocScenario.node[10].veinsmobility 	totalTime 	59
scalar LocScenario.node[10].veinsmobility 	stopTime 	71.150080239211
scalar LocScenario.node[10].veinsmobility 	minSpeed 	10.450141019491
scalar LocScenario.node[10].veinsmobility 	maxSpeed 	10.499975451687
scalar LocScenario.node[10].veinsmobility 	totalDistance 	620.75023502242
scalar LocScenario.node[10].veinsmobility 	totalCO2Emission 	101.5638994162
scalar LocScenario.node[12].appl 	generatedWSMs 	0
scalar LocScenario.node[12].appl 	receivedWSMs 	0
scalar LocScenario.node[12].appl 	generatedBSMs 	1132
scalar LocScenario.node[12].appl 	receivedBSMs 	14686
scalar LocScenario.node[12].appl 	generatedWSAs 	0
scalar LocScenario.node[12].appl 	receivedWSAs 	0
scalar LocScenario.node[12].appl 	rmseGPS 	35.02210982044
scalar LocScenario.node[12].appl 	rmseDRCP 	7.5914620728671
scalar LocScenario.node[12].appl 	timeOutage 	17.6
scalar LocScenario.node[12].nic.phy80211p 	busyTime 	0.026962856778855
scalar LocScenario.node[12].nic.mac1609_4 	ReceivedUnicastPackets 	0
scalar LocScenario.node[12].nic.mac1609_4 	ReceivedBroadcasts 	14686
scalar LocScenario.node[12].nic.mac1609_4 	SentPackets 	1132
scalar LocScenario.node[12].nic.mac1609_4 	SNIRLostPackets 	0
scalar LocScenario.node[12].nic.mac1609_4 	RXTXLostPackets 	0
scalar LocScenario.node[12].nic.mac1609_4 	TotalLostPackets 	0
scalar LocScenario.node[12].nic.mac1609_4 	DroppedPacketsInMac 	0
scalar LocScenario.node[12].nic.mac1609_4 	TooLittleTime 	0
scalar LocScenario.node[12].nic.mac1609_4 	TimesIntoBackoff 	1698
scalar LocScenario.node[12].nic.mac1609_4 	SlotsBackoff 	2548
scalar LocScenario.node[12].nic.mac1609_4 	NumInternalContention 	0
scalar LocScenario.node[12].nic.mac1609_4 	totalBusyTime 	1.646204
scalar LocScenario.node[12].veinsmobility 	startTime 	14.5
scalar LocScenario.node[12].veinsmobility 	totalTime 	56.6
scalar LocScenario.node[12].veinsmobility 	stopTime 	71.150080239211
scalar LocScenario.node[12].veinsmobility 	minSpeed 	10.450168547989
scalar LocScenario.node[12].veinsmobility 	maxSpeed 	10.499972701457
scalar LocScenario.node[12].veinsmobility 	totalDistance 	597.93540718346
scalar LocScenario.node[12].veinsmobility 	totalCO2Emission 	97.514852836727
scalar LocScenario.node[14].appl 	generatedWSMs 	0
scalar LocScenario.node[14].appl 	receivedWSMs 	0
scalar LocScenario.node[14].appl 	generatedBSMs 	1085
scalar LocScenario.node[14].appl 	receivedBSMs 	15025
scalar LocScenario.node[14].appl 	generatedWSAs 	0
scalar LocScenario.node[14].appl 	receivedWSAs 	0
scalar LocScenario.node[14].appl 	rmseGPS 	73.373490525134
scalar LocScenario.node[14].appl 	rmseDRCP 	7.4375937439513
scalar LocScenario.node[14].appl 	timeOutage 	26.7
scalar LocScenario.node[14].nic.phy80211p 	busyTime 	0.028805561081383
scalar LocScenario.node[14].nic.mac1609_4 	ReceivedUnicastPackets 	0
scalar LocScenario.node[14].nic.mac1609_4 	ReceivedBroadcasts 	15025
scalar LocScenario.node[14].nic.mac1609_4 	SentPackets 	1085
scalar LocScenario.node[14].nic.mac1609_4 	SNIRLostPackets 	0
scalar LocScenario.node[14].nic.mac1609_4 	RXTXLostPackets 	0
scalar LocScenario.node[14].nic.mac1609_4 	TotalLostPackets 	0
scalar LocScenario.node[14].nic.mac1609_4 	DroppedPacketsInMac 	0
scalar LocScenario.node[14].nic.mac1609_4 	TooLittleTime 	0
scalar LocScenario.node[14].nic.mac1609_4 	TimesIntoBackoff 	1085
scalar LocScenario.node[14].nic.mac1609_4 	SlotsBackoff 	1595
scalar LocScenario.node[14].nic.mac1609_4 	NumInternalContention 	0
scalar LocScenario.node[14].nic.mac1609_4 	totalBusyTime 	1.676525
scalar LocScenario.node[14].veinsmobility 	startTime 	16.9
scalar LocScenario.node[14].veinsmobility 	totalTime 	54.2
scalar LocScenario.node[14].veinsmobility 	stopTime 	71.150080239211
scalar LocScenario.node[14].veinsmobility 	minSpeed 	10.450340175815
scalar LocScenario.node[14].veinsmobility 	maxSpeed 	10.499957453134
scalar LocScenario.node[14].veinsmobility 	totalDistance 	572.6092254369
scalar LocScenario.node[14].veinsmobility 	totalCO2Emission 	93.403595713052
scalar LocScenario.node[16].appl 	generatedWSMs 	0
scalar LocScenario.node[16].appl 	receivedWSMs 	0
scalar LocScenario.node[16].appl 	generatedBSMs 	1037
scalar LocScenario.node[16].appl 	receivedBSMs 	15320
scalar LocScenario.node[16].appl 	generatedWSAs 	0
scalar LocScenario.node[16].appl 	receivedWSAs 	0
scalar LocScenario.node[16].appl 	rmseGPS 	90.562682480056
scalar LocScenario.node[16].appl 	rmseDRCP 	6.7413046909197
scalar LocScenario.node[16].appl 	timeOutage 	28
scalar LocScenario.node[16].nic.phy80211p 	busyTime 	0.030730598538121
scalar LocScenario.node[16].nic.mac1609_4 	ReceivedUnicastPackets 	0
scalar LocScenario.node[16].nic.mac1609_4 	ReceivedBroadcasts 	15320
scalar LocScenario.node[16].nic.mac1609_4 	SentPackets 	1037
scalar LocScenario.node[16].nic.mac1609_4 	SNIRLostPackets 	0
scalar LocScenario.node[16].nic.mac1609_4 	RXTXLostPackets 	0
scalar LocScenario.node[16].nic.mac1609_4 	TotalLostPackets 	0
scalar LocScenario.node[16].nic.mac1609_4 	DroppedPacketsInMac 	0
scalar LocScenario.node[16].nic.mac1609_4 	TooLittleTime 	0
scalar LocScenario.node[16].nic.mac1609_4 	TimesIntoBackoff 	1037
scalar LocScenario.node[16].nic.mac1609_4 	SlotsBackoff 	1546
scalar LocScenario.node[16].nic.mac1609_4 	NumInternalContention 	0
scalar LocScenario.node[16].nic.mac1609_4 	totalBusyTime 	1.702165
scalar LocScenario.node[16].veinsmobility 	startTime 	19.3
scalar LocScenario.node[16].veinsmobility 	totalTime 	51.8
scalar LocScenario.node[16].veinsmobility 	stopTime 	71.150080239211
scalar LocScenario.node[16].veinsmobility 	minSpeed 	10.450128193724
scalar LocScenario.node[16].veinsmobility 	maxSpeed 	10.499996315152
scalar LocScenario.node[16].veinsmobility 	totalDistance 	545.13267999063
scalar LocScenario.node[16].veinsmobility 	totalCO2Emission 	89.362244946492
scalar LocScenario.node[18].appl 	generatedWSMs 	0
scalar LocScenario.node[18].appl 	receivedWSMs 	0
scalar LocScenario.node[18].appl 	generatedBSMs 	989
scalar LocScenario.node[18].appl 	receivedBSMs 	15069
scalar LocScenario.node[18].appl 	generatedWSAs 	0
scalar LocScenario.node[18].appl 	receivedWSAs 	0
scalar LocScenario.node[18].appl 	rmseGPS 	46.447431660944
scalar LocScenario.node[18].appl 	rmseDRCP 	7.130542819328
scalar LocScenario.node[18].appl 	timeOutage 	20
scalar LocScenario.node[18].nic.phy80211p 	busyTime 	0.031694185174603
scalar LocScenario.node[18].nic.mac1609_4 	ReceivedUnicastPackets 	0
scalar LocScenario.node[18].nic.mac1609_4 	ReceivedBroadcasts 	15069
scalar LocScenario.node[18].nic.mac1609_4 	SentPackets 	989
scalar LocScenario.node[18].nic.mac1609_4 	SNIRLostPackets 	0
scalar LocScenario.node[18].nic.mac1609_4 	RXTXLostPackets 	0
scalar LocScenario.node[18].nic.mac1609_4 	TotalLostPackets 	0
scalar LocScenario.node[18].nic.mac1609_4 	DroppedPacketsInMac 	0
scalar LocScenario.node[18].nic.mac1609_4 	TooLittleTime 	0
scalar LocScenario.node[18].nic.mac1609_4 	TimesIntoBackoff 	989
scalar LocScenario.node[18].nic.mac1609_4 	SlotsBackoff 	1442
scalar LocScenario.node[18].nic.mac1609_4 	NumInternalContention 	0
scalar LocScenario.node[18].nic.mac1609_4 	totalBusyTime 	1.671021
scalar LocScenario.node[18].veinsmobility 	startTime 	21.7
scalar LocScenario.node[18].veinsmobility 	totalTime 	49.4
scalar LocScenario.node[18].veinsmobility 	stopTime 	71.150080239211
scalar LocScenario.node[18].veinsmobility 	minSpeed 	10.450083497656
scalar LocScenario.node[18].veinsmobility 	maxSpeed 	10.499829085486
scalar LocScenario.node[18].veinsmobility 	totalDistance 	519.91846000753
scalar LocScenario.node[18].veinsmobility 	totalCO2Emission 	84.891044316575
scalar LocScenario.node[1].appl 	generatedWSMs 	0
scalar LocScenario.node[1].appl 	receivedWSMs 	0
scalar LocScenario.node[1].appl 	generatedBSMs 	1397
scalar LocScenario.node[1].appl 	receivedBSMs 	9670
scalar LocScenario.node[1].appl 	generatedWSAs 	0
scalar LocScenario.node[1].appl 	receivedWSAs 	0
scalar LocScenario.node[1].appl 	rmseGPS 	97.011898124146
scalar LocScenario.node[1].appl 	rmseDRCP 	10.725916979617
scalar LocScenario.node[1].appl 	timeOutage 	35.3
scalar LocScenario.node[1].nic.phy80211p 	busyTime 	0.014514607112728
scalar LocScenario.node[1].nic.mac1609_4 	ReceivedUnicastPackets 	0
scalar LocScenario.node[1].nic.mac1609_4 	ReceivedBroadcasts 	9670
scalar LocScenario.node[1].nic.mac1609_4 	SentPackets 	1397
scalar LocScenario.node[1].nic.mac1609_4 	SNIRLostPackets 	246
scalar LocScenario.node[1].nic.mac1609_4 	RXTXLostPackets 	0
scalar LocScenario.node[1].nic.mac1609_4 	TotalLostPackets 	246
scalar LocScenario.node[1].nic.mac1609_4 	DroppedPacketsInMac 	0
scalar LocScenario.node[1].nic.mac1609_4 	TooLittleTime 	0
scalar LocScenario.node[1].nic.mac1609_4 	TimesIntoBackoff 	1397
scalar LocScenario.node[1].nic.mac1609_4 	SlotsBackoff 	2093
scalar LocScenario.node[1].nic.mac1609_4 	NumInternalContention 	0
scalar LocScenario.node[1].nic.mac1609_4 	totalBusyTime 	1.165157
scalar LocScenario.node[1].veinsmobility 	startTime 	0.1
scalar LocScenario.node[1].veinsmobility 	totalTime 	71
scalar LocScenario.node[1].veinsmobility 	stopTime 	71.150080239211
scalar LocScenario.node[1].veinsmobility 	minSpeed 	10.450003442704
scalar LocScenario.node[1].veinsmobility 	maxSpeed 	10.499954835791
scalar LocScenario.node[1].veinsmobility 	totalDistance 	747.08091219796
scalar LocScenario.node[1].veinsmobility 	totalCO2Emission 	122.36040114089
scalar LocScenario.node[3].appl 	generatedWSMs 	0
scalar LocScenario.node[3].appl 	receivedWSMs 	0
scalar LocScenario.node[3].appl 	generatedBSMs 	1373
scalar LocScenario.node[3].appl 	receivedBSMs 	10606
scalar LocScenario.node[3].appl 	generatedWSAs 	0
scalar LocScenario.node[3].appl 	receivedWSAs 	0
scalar LocScenario.node[3].appl 	rmseGPS 	12.086391519793
scalar LocScenario.node[3].appl 	rmseDRCP 	9.2984602432063
scalar LocScenario.node[3].appl 	timeOutage 	6.5
scalar LocScenario.node[3].nic.phy80211p 	busyTime 	0.016440009917941
scalar LocScenario.node[3].nic.mac1609_4 	ReceivedUnicastPackets 	0
scalar LocScenario.node[3].nic.mac1609_4 	ReceivedBroadcasts 	10606
scalar LocScenario.node[3].nic.mac1609_4 	SentPackets 	1373
scalar LocScenario.node[3].nic.mac1609_4 	SNIRLostPackets 	246
scalar LocScenario.node[3].nic.mac1609_4 	RXTXLostPackets 	0
scalar LocScenario.node[3].nic.mac1609_4 	TotalLostPackets 	246
scalar LocScenario.node[3].nic.mac1609_4 	DroppedPacketsInMac 	0
scalar LocScenario.node[3].nic.mac1609_4 	TooLittleTime 	0
scalar LocScenario.node[3].nic.mac1609_4 	TimesIntoBackoff 	1373
scalar LocScenario.node[3].nic.mac1609_4 	SlotsBackoff 	2067
scalar LocScenario.node[3].nic.mac1609_4 	NumInternalContention 	0
scalar LocScenario.node[3].nic.mac1609_4 	totalBusyTime 	1.259981
scalar LocScenario.node[3].veinsmobility 	startTime 	2.5
scalar LocScenario.node[3].veinsmobility 	totalTime 	68.6
scalar LocScenario.node[3].veinsmobility 	stopTime 	71.150080239211
scalar LocScenario.node[3].veinsmobility 	minSpeed 	10.45023502172
scalar LocScenario.node[3].veinsmobility 	maxSpeed 	10.499910899089
scalar LocScenario.node[3].veinsmobility 	totalDistance 	721.99390019199
scalar LocScenario.node[3].veinsmobility 	totalCO2Emission 	118.24101865603
scalar LocScenario.node[21].appl 	generatedWSMs 	0
scalar LocScenario.node[21].appl 	receivedWSMs 	0
scalar LocScenario.node[21].appl 	generatedBSMs 	940
scalar LocScenario.node[21].appl 	receivedBSMs 	13058
scalar LocScenario.node[21].appl 	generatedWSAs 	0
scalar LocScenario.node[21].appl 	receivedWSAs 	0
scalar LocScenario.node[21].appl 	rmseGPS 	9.1290645062094
scalar LocScenario.node[21].appl 	rmseDRCP 	9.1290645062094
scalar LocScenario.node[21].appl 	timeOutage 	-71.06596068826
scalar LocScenario.node[21].nic.phy80211p 	busyTime 	0.029860437917585
scalar LocScenario.node[21].nic.mac1609_4 	ReceivedUnicastPackets 	0
scalar LocScenario.node[21].nic.mac1609_4 	ReceivedBroadcasts 	13058
scalar LocScenario.node[21].nic.mac1609_4 	SentPackets 	940
scalar LocScenario.node[21].nic.mac1609_4 	SNIRLostPackets 	451
scalar LocScenario.node[21].nic.mac1609_4 	RXTXLostPackets 	0
scalar LocScenario.node[21].nic.mac1609_4 	TotalLostPackets 	451
scalar LocScenario.node[21].nic.mac1609_4 	DroppedPacketsInMac 	0
scalar LocScenario.node[21].nic.mac1609_4 	TooLittleTime 	0
scalar LocScenario.node[21].nic.mac1609_4 	TimesIntoBackoff 	940
scalar LocScenario.node[21].nic.mac1609_4 	SlotsBackoff 	1396
scalar LocScenario.node[21].nic.mac1609_4 	NumInternalContention 	0
scalar LocScenario.node[21].nic.mac1609_4 	totalBusyTime 	1.467756
scalar LocScenario.node[21].veinsmobility 	startTime 	24.1
scalar LocScenario.node[21].veinsmobility 	totalTime 	47
scalar LocScenario.node[21].veinsmobility 	stopTime 	71.150080239211
scalar LocScenario.node[21].veinsmobility 	minSpeed 	10.450252560247
scalar LocScenario.node[21].veinsmobility 	maxSpeed 	10.499944190844
scalar LocScenario.node[21].veinsmobility 	totalDistance 	490.9688380267
scalar LocScenario.node[21].veinsmobility 	totalCO2Emission 	80.80203454202
scalar LocScenario.node[23].appl 	generatedWSMs 	0
scalar LocScenario.node[23].appl 	receivedWSMs 	0
scalar LocScenario.node[23].appl 	generatedBSMs 	893
scalar LocScenario.node[23].appl 	receivedBSMs 	12058
scalar LocScenario.node[23].appl 	generatedWSAs 	0
scalar LocScenario.node[23].appl 	receivedWSAs 	0
scalar LocScenario.node[23].appl 	rmseGPS 	9.2619559925476
scalar LocScenario.node[23].appl 	rmseDRCP 	9.2619559925476
scalar LocScenario.node[23].appl 	timeOutage 	-71.111271088407
scalar LocScenario.node[23].nic.phy80211p 	busyTime 	0.029518244825971
scalar LocScenario.node[23].nic.mac1609_4 	ReceivedUnicastPackets 	0
scalar LocScenario.node[23].nic.mac1609_4 	ReceivedBroadcasts 	12058
scalar LocScenario.node[23].nic.mac1609_4 	SentPackets 	893
scalar LocScenario.node[23].nic.mac1609_4 	SNIRLostPackets 	615
scalar LocScenario.node[23].nic.mac1609_4 	RXTXLostPackets 	0
scalar LocScenario.node[23].nic.mac1609_4 	TotalLostPackets 	615
scalar LocScenario.node[23].nic.mac1609_4 	DroppedPacketsInMac 	0
scalar LocScenario.node[23].nic.mac1609_4 	TooLittleTime 	0
scalar LocScenario.node[23].nic.mac1609_4 	TimesIntoBackoff 	893
scalar LocScenario.node[23].nic.mac1609_4 	SlotsBackoff 	1327
scalar LocScenario.node[23].nic.mac1609_4 	NumInternalContention 	0
scalar LocScenario.node[23].nic.mac1609_4 	totalBusyTime 	1.372445
scalar LocScenario.node[23].veinsmobility 	startTime 	26.5
scalar LocScenario.node[23].veinsmobility 	totalTime 	44.6
scalar LocScenario.node[23].veinsmobility 	stopTime 	71.150080239211
scalar LocScenario.node[23].veinsmobility 	minSpeed 	10.450034264626
scalar LocScenario.node[23].veinsmobility 	maxSpeed 	10.499913108384
scalar LocScenario.node[23].veinsmobility 	totalDistance 	468.30405485239
scalar LocScenario.node[23].veinsmobility 	totalCO2Emission 	76.571166788767
scalar LocScenario.node[25].appl 	generatedWSMs 	0
scalar LocScenario.node[25].appl 	receivedWSMs 	0
scalar LocScenario.node[25].appl 	generatedBSMs 	845
scalar LocScenario.node[25].appl 	receivedBSMs 	11088
scalar LocScenario.node[25].appl 	generatedWSAs 	0
scalar LocScenario.node[25].appl 	receivedWSAs 	0
scalar LocScenario.node[25].appl 	rmseGPS 	11.878902627401
scalar LocScenario.node[25].appl 	rmseDRCP 	8.0710946011237
scalar LocScenario.node[25].appl 	timeOutage 	6.4
scalar LocScenario.node[25].nic.phy80211p 	busyTime 	0.029129790831923
scalar LocScenario.node[25].nic.mac1609_4 	ReceivedUnicastPackets 	0
scalar LocScenario.node[25].nic.mac1609_4 	ReceivedBroadcasts 	11088
scalar LocScenario.node[25].nic.mac1609_4 	SentPackets 	845
scalar LocScenario.node[25].nic.mac1609_4 	SNIRLostPackets 	746
scalar LocScenario.node[25].nic.mac1609_4 	RXTXLostPackets 	0
scalar LocScenario.node[25].nic.mac1609_4 	TotalLostPackets 	746
scalar LocScenario.node[25].nic.mac1609_4 	DroppedPacketsInMac 	0
scalar LocScenario.node[25].nic.mac1609_4 	TooLittleTime 	0
scalar LocScenario.node[25].nic.mac1609_4 	TimesIntoBackoff 	845
scalar LocScenario.node[25].nic.mac1609_4 	SlotsBackoff 	1253
scalar LocScenario.node[25].nic.mac1609_4 	NumInternalContention 	0
scalar LocScenario.node[25].nic.mac1609_4 	totalBusyTime 	1.280669
scalar LocScenario.node[25].veinsmobility 	startTime 	28.9
scalar LocScenario.node[25].veinsmobility 	totalTime 	42.2
scalar LocScenario.node[25].veinsmobility 	stopTime 	71.150080239211
scalar LocScenario.node[25].veinsmobility 	minSpeed 	10.450002169271
scalar LocScenario.node[25].veinsmobility 	maxSpeed 	10.49996719819
scalar LocScenario.node[25].veinsmobility 	totalDistance 	443.150422195
scalar LocScenario.node[25].veinsmobility 	totalCO2Emission 	72.881944251898
scalar LocScenario.node[27].appl 	generatedWSMs 	0
scalar LocScenario.node[27].appl 	receivedWSMs 	0
scalar LocScenario.node[27].appl 	generatedBSMs 	796
scalar LocScenario.node[27].appl 	receivedBSMs 	10325
scalar LocScenario.node[27].appl 	generatedWSAs 	0
scalar LocScenario.node[27].appl 	receivedWSAs 	0
scalar LocScenario.node[27].appl 	rmseGPS 	9.4199878427158
scalar LocScenario.node[27].appl 	rmseDRCP 	9.3137000853428
scalar LocScenario.node[27].appl 	timeOutage 	0.9
scalar LocScenario.node[27].nic.phy80211p 	busyTime 	0.028851133877237
scalar LocScenario.node[27].nic.mac1609_4 	ReceivedUnicastPackets 	0
scalar LocScenario.node[27].nic.mac1609_4 	ReceivedBroadcasts 	10325
scalar LocScenario.node[27].nic.mac1609_4 	SentPackets 	796
scalar LocScenario.node[27].nic.mac1609_4 	SNIRLostPackets 	730
scalar LocScenario.node[27].nic.mac1609_4 	RXTXLostPackets 	0
scalar LocScenario.node[27].nic.mac1609_4 	TotalLostPackets 	730
scalar LocScenario.node[27].nic.mac1609_4 	DroppedPacketsInMac 	0
scalar LocScenario.node[27].nic.mac1609_4 	TooLittleTime 	0
scalar LocScenario.node[27].nic.mac1609_4 	TimesIntoBackoff 	796
scalar LocScenario.node[27].nic.mac1609_4 	SlotsBackoff 	1174
scalar LocScenario.node[27].nic.mac1609_4 	NumInternalContention 	0
scalar LocScenario.node[27].nic.mac1609_4 	totalBusyTime 	1.195652
scalar LocScenario.node[27].veinsmobility 	startTime 	31.3
scalar LocScenario.node[27].veinsmobility 	totalTime 	39.8
scalar LocScenario.node[27].veinsmobility 	stopTime 	71.150080239211
scalar LocScenario.node[27].veinsmobility 	minSpeed 	10.450002551789
scalar LocScenario.node[27].veinsmobility 	maxSpeed 	10.499992481235
scalar LocScenario.node[27].veinsmobility 	totalDistance 	418.04385038147
scalar LocScenario.node[27].veinsmobility 	totalCO2Emission 	68.479389268844
scalar LocScenario.node[29].appl 	generatedWSMs 	0
scalar LocScenario.node[29].appl 	receivedWSMs 	0
scalar LocScenario.node[29].appl 	generatedBSMs 	748
scalar LocScenario.node[29].appl 	receivedBSMs 	9653
scalar LocScenario.node[29].appl 	generatedWSAs 	0
scalar LocScenario.node[29].appl 	receivedWSAs 	0
scalar LocScenario.node[29].appl 	rmseGPS 	9.1807600539341
scalar LocScenario.node[29].appl 	rmseDRCP 	9.1807600539341
scalar LocScenario.node[29].appl 	timeOutage 	-71.051795949391
scalar LocScenario.node[29].nic.phy80211p 	busyTime 	0.028608964070476
scalar LocScenario.node[29].nic.mac1609_4 	ReceivedUnicastPackets 	0
scalar LocScenario.node[29].nic.mac1609_4 	ReceivedBroadcasts 	9653
scalar LocScenario.node[29].nic.mac1609_4 	SentPackets 	748
scalar LocScenario.node[29].nic.mac1609_4 	SNIRLostPackets 	649
scalar LocScenario.node[29].nic.mac1609_4 	RXTXLostPackets 	0
scalar LocScenario.node[29].nic.mac1609_4 	TotalLostPackets 	649
scalar LocScenario.node[29].nic.mac1609_4 	DroppedPacketsInMac 	0
scalar LocScenario.node[29].nic.mac1609_4 	TooLittleTime 	0
scalar LocScenario.node[29].nic.mac1609_4 	TimesIntoBackoff 	748
scalar LocScenario.node[29].nic.mac1609_4 	SlotsBackoff 	1133
scalar LocScenario.node[29].nic.mac1609_4 	NumInternalContention 	0
scalar LocScenario.node[29].nic.mac1609_4 	totalBusyTime 	1.119164
scalar LocScenario.node[29].veinsmobility 	startTime 	33.7
scalar LocScenario.node[29].veinsmobility 	totalTime 	37.4
scalar LocScenario.node[29].veinsmobility 	stopTime 	71.150080239211
scalar LocScenario.node[29].veinsmobility 	minSpeed 	10.45064542318
scalar LocScenario.node[29].veinsmobility 	maxSpeed 	10.49985965261
scalar LocScenario.node[29].veinsmobility 	totalDistance 	390.60289683239
scalar LocScenario.node[29].veinsmobility 	totalCO2Emission 	64.209880979753
scalar LocScenario.node[31].appl 	generatedWSMs 	0
scalar LocScenario.node[31].appl 	receivedWSMs 	0
scalar LocScenario.node[31].appl 	generatedBSMs 	701
scalar LocScenario.node[31].appl 	receivedBSMs 	9055
scalar LocScenario.node[31].appl 	generatedWSAs 	0
scalar LocScenario.node[31].appl 	receivedWSAs 	0
scalar LocScenario.node[31].appl 	rmseGPS 	16.667895142423
scalar LocScenario.node[31].appl 	rmseDRCP 	7.4356623417138
scalar LocScenario.node[31].appl 	timeOutage 	9
scalar LocScenario.node[31].nic.phy80211p 	busyTime 	0.028229778455486
scalar LocScenario.node[31].nic.mac1609_4 	ReceivedUnicastPackets 	0
scalar LocScenario.node[31].nic.mac1609_4 	ReceivedBroadcasts 	9055
scalar LocScenario.node[31].nic.mac1609_4 	SentPackets 	701
scalar LocScenario.node[31].nic.mac1609_4 	SNIRLostPackets 	459
scalar LocScenario.node[31].nic.mac1609_4 	RXTXLostPackets 	0
scalar LocScenario.node[31].nic.mac1609_4 	TotalLostPackets 	459
scalar LocScenario.node[31].nic.mac1609_4 	DroppedPacketsInMac 	0
scalar LocScenario.node[31].nic.mac1609_4 	TooLittleTime 	0
scalar LocScenario.node[31].nic.mac1609_4 	TimesIntoBackoff 	701
scalar LocScenario.node[31].nic.mac1609_4 	SlotsBackoff 	1034
scalar LocScenario.node[31].nic.mac1609_4 	NumInternalContention 	0
scalar LocScenario.node[31].nic.mac1609_4 	totalBusyTime 	1.039973
scalar LocScenario.node[31].veinsmobility 	startTime 	36.1
scalar LocScenario.node[31].veinsmobility 	totalTime 	35
scalar LocScenario.node[31].veinsmobility 	stopTime 	71.150080239211
scalar LocScenario.node[31].veinsmobility 	minSpeed 	10.450026087707
scalar LocScenario.node[31].veinsmobility 	maxSpeed 	10.499852970953
scalar LocScenario.node[31].veinsmobility 	totalDistance 	365.54881087151
scalar LocScenario.node[31].veinsmobility 	totalCO2Emission 	60.103331493704
scalar LocScenario.node[33].appl 	generatedWSMs 	0
scalar LocScenario.node[33].appl 	receivedWSMs 	0
scalar LocScenario.node[33].appl 	generatedBSMs 	652
scalar LocScenario.node[33].appl 	receivedBSMs 	8615
scalar LocScenario.node[33].appl 	generatedWSAs 	0
scalar LocScenario.node[33].appl 	receivedWSAs 	0
scalar LocScenario.node[33].appl 	rmseGPS 	9.0979430139344
scalar LocScenario.node[33].appl 	rmseDRCP 	9.0979430139344
scalar LocScenario.node[33].appl 	timeOutage 	-71.061185815814
scalar LocScenario.node[33].nic.phy80211p 	busyTime 	0.027632397635472
scalar LocScenario.node[33].nic.mac1609_4 	ReceivedUnicastPackets 	0
scalar LocScenario.node[33].nic.mac1609_4 	ReceivedBroadcasts 	8615
scalar LocScenario.node[33].nic.mac1609_4 	SentPackets 	652
scalar LocScenario.node[33].nic.mac1609_4 	SNIRLostPackets 	60
scalar LocScenario.node[33].nic.mac1609_4 	RXTXLostPackets 	0
scalar LocScenario.node[33].nic.mac1609_4 	TotalLostPackets 	60
scalar LocScenario.node[33].nic.mac1609_4 	DroppedPacketsInMac 	0
scalar LocScenario.node[33].nic.mac1609_4 	TooLittleTime 	0
scalar LocScenario.node[33].nic.mac1609_4 	TimesIntoBackoff 	652
scalar LocScenario.node[33].nic.mac1609_4 	SlotsBackoff 	1058
scalar LocScenario.node[33].nic.mac1609_4 	NumInternalContention 	0
scalar LocScenario.node[33].nic.mac1609_4 	totalBusyTime 	0.96754
scalar LocScenario.node[33].veinsmobility 	startTime 	38.5
scalar LocScenario.node[33].veinsmobility 	totalTime 	32.6
scalar LocScenario.node[33].veinsmobility 	stopTime 	71.150080239211
scalar LocScenario.node[33].veinsmobility 	minSpeed 	10.450336889247
scalar LocScenario.node[33].veinsmobility 	maxSpeed 	10.499901936145
scalar LocScenario.node[33].veinsmobility 	totalDistance 	340.4364485055
scalar LocScenario.node[33].veinsmobility 	totalCO2Emission 	56.248515044247
scalar LocScenario.node[35].appl 	generatedWSMs 	0
scalar LocScenario.node[35].appl 	receivedWSMs 	0
scalar LocScenario.node[35].appl 	generatedBSMs 	604
scalar LocScenario.node[35].appl 	receivedBSMs 	7881
scalar LocScenario.node[35].appl 	generatedWSAs 	0
scalar LocScenario.node[35].appl 	receivedWSAs 	0
scalar LocScenario.node[35].appl 	rmseGPS 	9.2919046521997
scalar LocScenario.node[35].appl 	rmseDRCP 	9.2919046521997
scalar LocScenario.node[35].appl 	timeOutage 	-71.099800586817
scalar LocScenario.node[35].nic.phy80211p 	busyTime 	0.02709493639417
scalar LocScenario.node[35].nic.mac1609_4 	ReceivedUnicastPackets 	0
scalar LocScenario.node[35].nic.mac1609_4 	ReceivedBroadcasts 	7881
scalar LocScenario.node[35].nic.mac1609_4 	SentPackets 	604
scalar LocScenario.node[35].nic.mac1609_4 	SNIRLostPackets 	0
scalar LocScenario.node[35].nic.mac1609_4 	RXTXLostPackets 	0
scalar LocScenario.node[35].nic.mac1609_4 	TotalLostPackets 	0
scalar LocScenario.node[35].nic.mac1609_4 	DroppedPacketsInMac 	0
scalar LocScenario.node[35].nic.mac1609_4 	TooLittleTime 	0
scalar LocScenario.node[35].nic.mac1609_4 	TimesIntoBackoff 	906
scalar LocScenario.node[35].nic.mac1609_4 	SlotsBackoff 	1389
scalar LocScenario.node[35].nic.mac1609_4 	NumInternalContention 	0
scalar LocScenario.node[35].nic.mac1609_4 	totalBusyTime 	0.883044
scalar LocScenario.node[35].veinsmobility 	startTime 	40.9
scalar LocScenario.node[35].veinsmobility 	totalTime 	30.2
scalar LocScenario.node[35].veinsmobility 	stopTime 	71.150080239211
scalar LocScenario.node[35].veinsmobility 	minSpeed 	10.450490569079
scalar LocScenario.node[35].veinsmobility 	maxSpeed 	10.499863706646
scalar LocScenario.node[35].veinsmobility 	totalDistance 	315.43437794107
scalar LocScenario.node[35].veinsmobility 	totalCO2Emission 	51.950748101069
scalar LocScenario.node[37].appl 	generatedWSMs 	0
scalar LocScenario.node[37].appl 	receivedWSMs 	0
scalar LocScenario.node[37].appl 	generatedBSMs 	557
scalar LocScenario.node[37].appl 	receivedBSMs 	7134
scalar LocScenario.node[37].appl 	generatedWSAs 	0
scalar LocScenario.node[37].appl 	receivedWSAs 	0
scalar LocScenario.node[37].appl 	rmseGPS 	9.0022898343635
scalar LocScenario.node[37].appl 	rmseDRCP 	9.0022898343635
scalar LocScenario.node[37].appl 	timeOutage 	-71.136467053345
scalar LocScenario.node[37].nic.phy80211p 	busyTime 	0.026640354125636
scalar LocScenario.node[37].nic.mac1609_4 	ReceivedUnicastPackets 	0
scalar LocScenario.node[37].nic.mac1609_4 	ReceivedBroadcasts 	7134
scalar LocScenario.node[37].nic.mac1609_4 	SentPackets 	557
scalar LocScenario.node[37].nic.mac1609_4 	SNIRLostPackets 	0
scalar LocScenario.node[37].nic.mac1609_4 	RXTXLostPackets 	0
scalar LocScenario.node[37].nic.mac1609_4 	TotalLostPackets 	0
scalar LocScenario.node[37].nic.mac1609_4 	DroppedPacketsInMac 	0
scalar LocScenario.node[37].nic.mac1609_4 	TooLittleTime 	0
scalar LocScenario.node[37].nic.mac1609_4 	TimesIntoBackoff 	557
scalar LocScenario.node[37].nic.mac1609_4 	SlotsBackoff 	853
scalar LocScenario.node[37].nic.mac1609_4 	NumInternalContention 	0
scalar LocScenario.node[37].nic.mac1609_4 	totalBusyTime 	0.800421
scalar LocScenario.node[37].veinsmobility 	startTime 	43.3
scalar LocScenario.node[37].veinsmobility 	totalTime 	27.8
scalar LocScenario.node[37].veinsmobility 	stopTime 	71.150080239211
scalar LocScenario.node[37].veinsmobility 	minSpeed 	10.450379130116
scalar LocScenario.node[37].veinsmobility 	maxSpeed 	10.499946114188
scalar LocScenario.node[37].veinsmobility 	totalDistance 	292.07634884493
scalar LocScenario.node[37].veinsmobility 	totalCO2Emission 	47.995121515499
scalar LocScenario.node[39].appl 	generatedWSMs 	0
scalar LocScenario.node[39].appl 	receivedWSMs 	0
scalar LocScenario.node[39].appl 	generatedBSMs 	508
scalar LocScenario.node[39].appl 	receivedBSMs 	6333
scalar LocScenario.node[39].appl 	generatedWSAs 	0
scalar LocScenario.node[39].appl 	receivedWSAs 	0
scalar LocScenario.node[39].appl 	rmseGPS 	15.481040066689
scalar LocScenario.node[39].appl 	rmseDRCP 	7.1536632499974
scalar LocScenario.node[39].appl 	timeOutage 	7.2
scalar LocScenario.node[39].nic.phy80211p 	busyTime 	0.025879368308836
scalar LocScenario.node[39].nic.mac1609_4 	ReceivedUnicastPackets 	0
scalar LocScenario.node[39].nic.mac1609_4 	ReceivedBroadcasts 	6333
scalar LocScenario.node[39].nic.mac1609_4 	SentPackets 	508
scalar LocScenario.node[39].nic.mac1609_4 	SNIRLostPackets 	0
scalar LocScenario.node[39].nic.mac1609_4 	RXTXLostPackets 	0
scalar LocScenario.node[39].nic.mac1609_4 	TotalLostPackets 	0
scalar LocScenario.node[39].nic.mac1609_4 	DroppedPacketsInMac 	0
scalar LocScenario.node[39].nic.mac1609_4 	TooLittleTime 	0
scalar LocScenario.node[39].nic.mac1609_4 	TimesIntoBackoff 	508
scalar LocScenario.node[39].nic.mac1609_4 	SlotsBackoff 	800
scalar LocScenario.node[39].nic.mac1609_4 	NumInternalContention 	0
scalar LocScenario.node[39].nic.mac1609_4 	totalBusyTime 	0.711972
scalar LocScenario.node[39].veinsmobility 	startTime 	45.7
scalar LocScenario.node[39].veinsmobility 	totalTime 	25.4
scalar LocScenario.node[39].veinsmobility 	stopTime 	71.150080239211
scalar LocScenario.node[39].veinsmobility 	minSpeed 	10.45000110236
scalar LocScenario.node[39].veinsmobility 	maxSpeed 	10.499755439442
scalar LocScenario.node[39].veinsmobility 	totalDistance 	266.86210232087
scalar LocScenario.node[39].veinsmobility 	totalCO2Emission 	43.759921627111
scalar LocScenario.node[5].appl 	generatedWSMs 	0
[...]
scalar LocScenario.node[55].nic.mac1609_4 	ReceivedUnicastPackets 	0
scalar LocScenario.node[55].nic.mac1609_4 	ReceivedBroadcasts 	1107
scalar LocScenario.node[55].nic.mac1609_4 	SentPackets 	124
scalar LocScenario.node[55].nic.mac1609_4 	SNIRLostPackets 	0
scalar LocScenario.node[55].nic.mac1609_4 	RXTXLostPackets 	0
scalar LocScenario.node[55].nic.mac1609_4 	TotalLostPackets 	0
scalar LocScenario.node[55].nic.mac1609_4 	DroppedPacketsInMac 	0
scalar LocScenario.node[55].nic.mac1609_4 	TooLittleTime 	0
scalar LocScenario.node[55].nic.mac1609_4 	TimesIntoBackoff 	124
scalar LocScenario.node[55].nic.mac1609_4 	SlotsBackoff 	179
scalar LocScenario.node[55].nic.mac1609_4 	NumInternalContention 	0
scalar LocScenario.node[55].nic.mac1609_4 	totalBusyTime 	0.128148
scalar LocScenario.node[55].veinsmobility 	startTime 	64.9
scalar LocScenario.node[55].veinsmobility 	totalTime 	6.2
scalar LocScenario.node[55].veinsmobility 	stopTime 	71.150080239211
scalar LocScenario.node[55].veinsmobility 	minSpeed 	10.450278880377
scalar LocScenario.node[55].veinsmobility 	maxSpeed 	10.499260445754
scalar LocScenario.node[55].veinsmobility 	totalDistance 	64.755043549113
scalar LocScenario.node[55].veinsmobility 	totalCO2Emission 	10.489085268731
scalar LocScenario.node[57].appl 	generatedWSMs 	0
scalar LocScenario.node[57].appl 	receivedWSMs 	0
scalar LocScenario.node[57].appl 	generatedBSMs 	76
scalar LocScenario.node[57].appl 	receivedBSMs 	647
scalar LocScenario.node[57].appl 	generatedWSAs 	0
scalar LocScenario.node[57].appl 	receivedWSAs 	0
scalar LocScenario.node[57].appl 	rmseGPS 	9.0636174098202
scalar LocScenario.node[57].appl 	rmseDRCP 	9.0636174098202
scalar LocScenario.node[57].appl 	timeOutage 	-71.062133012712
scalar LocScenario.node[57].nic.phy80211p 	busyTime 	0.017477038352268
scalar LocScenario.node[57].nic.mac1609_4 	ReceivedUnicastPackets 	0
scalar LocScenario.node[57].nic.mac1609_4 	ReceivedBroadcasts 	647
scalar LocScenario.node[57].nic.mac1609_4 	SentPackets 	76
scalar LocScenario.node[57].nic.mac1609_4 	SNIRLostPackets 	0
scalar LocScenario.node[57].nic.mac1609_4 	RXTXLostPackets 	0
scalar LocScenario.node[57].nic.mac1609_4 	TotalLostPackets 	0
scalar LocScenario.node[57].nic.mac1609_4 	DroppedPacketsInMac 	0
scalar LocScenario.node[57].nic.mac1609_4 	TooLittleTime 	0
scalar LocScenario.node[57].nic.mac1609_4 	TimesIntoBackoff 	76
scalar LocScenario.node[57].nic.mac1609_4 	SlotsBackoff 	110
scalar LocScenario.node[57].nic.mac1609_4 	NumInternalContention 	0
scalar LocScenario.node[57].nic.mac1609_4 	totalBusyTime 	0.075268
scalar LocScenario.node[57].veinsmobility 	startTime 	67.3
scalar LocScenario.node[57].veinsmobility 	totalTime 	3.8
scalar LocScenario.node[57].veinsmobility 	stopTime 	71.150080239211
scalar LocScenario.node[57].veinsmobility 	minSpeed 	10.451459072274
scalar LocScenario.node[57].veinsmobility 	maxSpeed 	10.498056314362
scalar LocScenario.node[57].veinsmobility 	totalDistance 	39.685220533165
scalar LocScenario.node[57].veinsmobility 	totalCO2Emission 	6.4572041103253
scalar LocScenario.node[59].appl 	generatedWSMs 	0
scalar LocScenario.node[59].appl 	receivedWSMs 	0
scalar LocScenario.node[59].appl 	generatedBSMs 	28
scalar LocScenario.node[59].appl 	receivedBSMs 	235
scalar LocScenario.node[59].appl 	generatedWSAs 	0
scalar LocScenario.node[59].appl 	receivedWSAs 	0
scalar LocScenario.node[59].appl 	rmseGPS 	8.4049246548323
scalar LocScenario.node[59].appl 	rmseDRCP 	8.4049246548323
scalar LocScenario.node[59].appl 	timeOutage 	-71.082557052863
scalar LocScenario.node[59].nic.phy80211p 	busyTime 	0.016854239744208
scalar LocScenario.node[59].nic.mac1609_4 	ReceivedUnicastPackets 	0
scalar LocScenario.node[59].nic.mac1609_4 	ReceivedBroadcasts 	235
scalar LocScenario.node[59].nic.mac1609_4 	SentPackets 	28
scalar LocScenario.node[59].nic.mac1609_4 	SNIRLostPackets 	0
scalar LocScenario.node[59].nic.mac1609_4 	RXTXLostPackets 	0
scalar LocScenario.node[59].nic.mac1609_4 	TotalLostPackets 	0
scalar LocScenario.node[59].nic.mac1609_4 	DroppedPacketsInMac 	0
scalar LocScenario.node[59].nic.mac1609_4 	TooLittleTime 	0
scalar LocScenario.node[59].nic.mac1609_4 	TimesIntoBackoff 	28
scalar LocScenario.node[59].nic.mac1609_4 	SlotsBackoff 	44
scalar LocScenario.node[59].nic.mac1609_4 	NumInternalContention 	0
scalar LocScenario.node[59].nic.mac1609_4 	totalBusyTime 	0.02738
scalar LocScenario.node[59].veinsmobility 	startTime 	69.7
scalar LocScenario.node[59].veinsmobility 	totalTime 	1.4
scalar LocScenario.node[59].veinsmobility 	stopTime 	71.150080239211
scalar LocScenario.node[59].veinsmobility 	minSpeed 	10.451280510612
scalar LocScenario.node[59].veinsmobility 	maxSpeed 	10.489911891299
scalar LocScenario.node[59].veinsmobility 	totalDistance 	14.615852022653
scalar LocScenario.node[59].veinsmobility 	totalCO2Emission 	2.322481022005
scalar LocScenario.node[7].appl 	generatedWSMs 	0
scalar LocScenario.node[7].appl 	receivedWSMs 	0
scalar LocScenario.node[7].appl 	generatedBSMs 	1276
scalar LocScenario.node[7].appl 	receivedBSMs 	11858
scalar LocScenario.node[7].appl 	generatedWSAs 	0
scalar LocScenario.node[7].appl 	receivedWSAs 	0
scalar LocScenario.node[7].appl 	rmseGPS 	42.202583464198
scalar LocScenario.node[7].appl 	rmseDRCP 	9.7665887669588
scalar LocScenario.node[7].appl 	timeOutage 	21.9
scalar LocScenario.node[7].nic.phy80211p 	busyTime 	0.02037811064803
scalar LocScenario.node[7].nic.mac1609_4 	ReceivedUnicastPackets 	0
scalar LocScenario.node[7].nic.mac1609_4 	ReceivedBroadcasts 	11858
scalar LocScenario.node[7].nic.mac1609_4 	SentPackets 	1276
scalar LocScenario.node[7].nic.mac1609_4 	SNIRLostPackets 	653
scalar LocScenario.node[7].nic.mac1609_4 	RXTXLostPackets 	0
scalar LocScenario.node[7].nic.mac1609_4 	TotalLostPackets 	653
scalar LocScenario.node[7].nic.mac1609_4 	DroppedPacketsInMac 	0
scalar LocScenario.node[7].nic.mac1609_4 	TooLittleTime 	0
scalar LocScenario.node[7].nic.mac1609_4 	TimesIntoBackoff 	1276
scalar LocScenario.node[7].nic.mac1609_4 	SlotsBackoff 	1909
scalar LocScenario.node[7].nic.mac1609_4 	NumInternalContention 	0
scalar LocScenario.node[7].nic.mac1609_4 	totalBusyTime 	1.380004
scalar LocScenario.node[7].veinsmobility 	startTime 	7.3
scalar LocScenario.node[7].veinsmobility 	totalTime 	63.8
scalar LocScenario.node[7].veinsmobility 	stopTime 	71.150080239211
scalar LocScenario.node[7].veinsmobility 	minSpeed 	10.450104123866
scalar LocScenario.node[7].veinsmobility 	maxSpeed 	10.499996971502
scalar LocScenario.node[7].veinsmobility 	totalDistance 	666.69394523077
scalar LocScenario.node[7].veinsmobility 	totalCO2Emission 	109.97548277861
scalar LocScenario.node[9].appl 	generatedWSMs 	0
scalar LocScenario.node[9].appl 	receivedWSMs 	0
scalar LocScenario.node[9].appl 	generatedBSMs 	1229
scalar LocScenario.node[9].appl 	receivedBSMs 	12184
scalar LocScenario.node[9].appl 	generatedWSAs 	0
scalar LocScenario.node[9].appl 	receivedWSAs 	0
scalar LocScenario.node[9].appl 	rmseGPS 	44.688771545546
scalar LocScenario.node[9].appl 	rmseDRCP 	8.7203803230051
scalar LocScenario.node[9].appl 	timeOutage 	21.1
scalar LocScenario.node[9].nic.phy80211p 	busyTime 	0.022179303829951
scalar LocScenario.node[9].nic.mac1609_4 	ReceivedUnicastPackets 	0
scalar LocScenario.node[9].nic.mac1609_4 	ReceivedBroadcasts 	12184
scalar LocScenario.node[9].nic.mac1609_4 	SentPackets 	1229
scalar LocScenario.node[9].nic.mac1609_4 	SNIRLostPackets 	921
scalar LocScenario.node[9].nic.mac1609_4 	RXTXLostPackets 	0
scalar LocScenario.node[9].nic.mac1609_4 	TotalLostPackets 	921
scalar LocScenario.node[9].nic.mac1609_4 	DroppedPacketsInMac 	0
scalar LocScenario.node[9].nic.mac1609_4 	TooLittleTime 	0
scalar LocScenario.node[9].nic.mac1609_4 	TimesIntoBackoff 	1229
scalar LocScenario.node[9].nic.mac1609_4 	SlotsBackoff 	1800
scalar LocScenario.node[9].nic.mac1609_4 	NumInternalContention 	0
scalar LocScenario.node[9].nic.mac1609_4 	totalBusyTime 	1.432685
scalar LocScenario.node[9].veinsmobility 	startTime 	9.7
scalar LocScenario.node[9].veinsmobility 	totalTime 	61.4
scalar LocScenario.node[9].veinsmobility 	stopTime 	71.150080239211
scalar LocScenario.node[9].veinsmobility 	minSpeed 	10.450098725781
scalar LocScenario.node[9].veinsmobility 	maxSpeed 	10.499922190141
scalar LocScenario.node[9].veinsmobility 	totalDistance 	646.51450576932
scalar LocScenario.node[9].veinsmobility 	totalCO2Emission 	105.67829865421
scalar LocScenario.node[11].appl 	generatedWSMs 	0
scalar LocScenario.node[11].appl 	receivedWSMs 	0
scalar LocScenario.node[11].appl 	generatedBSMs 	1181
scalar LocScenario.node[11].appl 	receivedBSMs 	12695
scalar LocScenario.node[11].appl 	generatedWSAs 	0
scalar LocScenario.node[11].appl 	receivedWSAs 	0
scalar LocScenario.node[11].appl 	rmseGPS 	103.73588064272
scalar LocScenario.node[11].appl 	rmseDRCP 	5.8982515116345
scalar LocScenario.node[11].appl 	timeOutage 	34.5
scalar LocScenario.node[11].nic.phy80211p 	busyTime 	0.023933176623559
scalar LocScenario.node[11].nic.mac1609_4 	ReceivedUnicastPackets 	0
scalar LocScenario.node[11].nic.mac1609_4 	ReceivedBroadcasts 	12695
scalar LocScenario.node[11].nic.mac1609_4 	SentPackets 	1181
scalar LocScenario.node[11].nic.mac1609_4 	SNIRLostPackets 	894
scalar LocScenario.node[11].nic.mac1609_4 	RXTXLostPackets 	123
scalar LocScenario.node[11].nic.mac1609_4 	TotalLostPackets 	1017
scalar LocScenario.node[11].nic.mac1609_4 	DroppedPacketsInMac 	0
scalar LocScenario.node[11].nic.mac1609_4 	TooLittleTime 	0
scalar LocScenario.node[11].nic.mac1609_4 	TimesIntoBackoff 	1723
scalar LocScenario.node[11].nic.mac1609_4 	SlotsBackoff 	2644
scalar LocScenario.node[11].nic.mac1609_4 	NumInternalContention 	0
scalar LocScenario.node[11].nic.mac1609_4 	totalBusyTime 	1.490773033769
scalar LocScenario.node[11].veinsmobility 	startTime 	12.1
scalar LocScenario.node[11].veinsmobility 	totalTime 	59
scalar LocScenario.node[11].veinsmobility 	stopTime 	71.150080239211
scalar LocScenario.node[11].veinsmobility 	minSpeed 	10.45037852393
scalar LocScenario.node[11].veinsmobility 	maxSpeed 	10.499847945163
scalar LocScenario.node[11].veinsmobility 	totalDistance 	616.57664271899
scalar LocScenario.node[11].veinsmobility 	totalCO2Emission 	101.85740906286
scalar LocScenario.node[13].appl 	generatedWSMs 	0
scalar LocScenario.node[13].appl 	receivedWSMs 	0
scalar LocScenario.node[13].appl 	generatedBSMs 	1132
scalar LocScenario.node[13].appl 	receivedBSMs 	13146
scalar LocScenario.node[13].appl 	generatedWSAs 	0
scalar LocScenario.node[13].appl 	receivedWSAs 	0
scalar LocScenario.node[13].appl 	rmseGPS 	9.3657725916382
scalar LocScenario.node[13].appl 	rmseDRCP 	9.3657725916382
scalar LocScenario.node[13].appl 	timeOutage 	-71.06852818178
scalar LocScenario.node[13].nic.phy80211p 	busyTime 	0.025775073818691
scalar LocScenario.node[13].nic.mac1609_4 	ReceivedUnicastPackets 	0
scalar LocScenario.node[13].nic.mac1609_4 	ReceivedBroadcasts 	13146
scalar LocScenario.node[13].nic.mac1609_4 	SentPackets 	1132
scalar LocScenario.node[13].nic.mac1609_4 	SNIRLostPackets 	894
scalar LocScenario.node[13].nic.mac1609_4 	RXTXLostPackets 	123
scalar LocScenario.node[13].nic.mac1609_4 	TotalLostPackets 	1017
scalar LocScenario.node[13].nic.mac1609_4 	DroppedPacketsInMac 	0
scalar LocScenario.node[13].nic.mac1609_4 	TooLittleTime 	0
scalar LocScenario.node[13].nic.mac1609_4 	TimesIntoBackoff 	1156
scalar LocScenario.node[13].nic.mac1609_4 	SlotsBackoff 	1730
scalar LocScenario.node[13].nic.mac1609_4 	NumInternalContention 	0
scalar LocScenario.node[13].nic.mac1609_4 	totalBusyTime 	1.532544186229
scalar LocScenario.node[13].veinsmobility 	startTime 	14.5
scalar LocScenario.node[13].veinsmobility 	totalTime 	56.6
scalar LocScenario.node[13].veinsmobility 	stopTime 	71.150080239211
scalar LocScenario.node[13].veinsmobility 	minSpeed 	10.450036100612
scalar LocScenario.node[13].veinsmobility 	maxSpeed 	10.499911380641
scalar LocScenario.node[13].veinsmobility 	totalDistance 	591.36771865061
scalar LocScenario.node[13].veinsmobility 	totalCO2Emission 	97.867064214292
scalar LocScenario.node[15].appl 	generatedWSMs 	0
scalar LocScenario.node[15].appl 	receivedWSMs 	0
scalar LocScenario.node[15].appl 	generatedBSMs 	1085
scalar LocScenario.node[15].appl 	receivedBSMs 	13459
scalar LocScenario.node[15].appl 	generatedWSAs 	0
scalar LocScenario.node[15].appl 	receivedWSAs 	0
scalar LocScenario.node[15].appl 	rmseGPS 	38.427665460218
scalar LocScenario.node[15].appl 	rmseDRCP 	8.3796030440179
scalar LocScenario.node[15].appl 	timeOutage 	18.6
scalar LocScenario.node[15].nic.phy80211p 	busyTime 	0.02778185752638
scalar LocScenario.node[15].nic.mac1609_4 	ReceivedUnicastPackets 	0
scalar LocScenario.node[15].nic.mac1609_4 	ReceivedBroadcasts 	13459
scalar LocScenario.node[15].nic.mac1609_4 	SentPackets 	1085
scalar LocScenario.node[15].nic.mac1609_4 	SNIRLostPackets 	1033
scalar LocScenario.node[15].nic.mac1609_4 	RXTXLostPackets 	0
scalar LocScenario.node[15].nic.mac1609_4 	TotalLostPackets 	1033
scalar LocScenario.node[15].nic.mac1609_4 	DroppedPacketsInMac 	0
scalar LocScenario.node[15].nic.mac1609_4 	TooLittleTime 	0
scalar LocScenario.node[15].nic.mac1609_4 	TimesIntoBackoff 	1628
scalar LocScenario.node[15].nic.mac1609_4 	SlotsBackoff 	2497
scalar LocScenario.node[15].nic.mac1609_4 	NumInternalContention 	0
scalar LocScenario.node[15].nic.mac1609_4 	totalBusyTime 	1.561813
scalar LocScenario.node[15].veinsmobility 	startTime 	16.9
scalar LocScenario.node[15].veinsmobility 	totalTime 	54.2
scalar LocScenario.node[15].veinsmobility 	stopTime 	71.150080239211
scalar LocScenario.node[15].veinsmobility 	minSpeed 	10.450082256005
scalar LocScenario.node[15].veinsmobility 	maxSpeed 	10.49998730768
scalar LocScenario.node[15].veinsmobility 	totalDistance 	571.18323286598
scalar LocScenario.node[15].veinsmobility 	totalCO2Emission 	93.776543121705
scalar LocScenario.node[17].appl 	generatedWSMs 	0
scalar LocScenario.node[17].appl 	receivedWSMs 	0
scalar LocScenario.node[17].appl 	generatedBSMs 	1036
scalar LocScenario.node[17].appl 	receivedBSMs 	13632
scalar LocScenario.node[17].appl 	generatedWSAs 	0
scalar LocScenario.node[17].appl 	receivedWSAs 	0
scalar LocScenario.node[17].appl 	rmseGPS 	9.0339993581166
scalar LocScenario.node[17].appl 	rmseDRCP 	9.0339993581166
scalar LocScenario.node[17].appl 	timeOutage 	-71.077239627298
scalar LocScenario.node[17].nic.phy80211p 	busyTime 	0.029376695136695
scalar LocScenario.node[17].nic.mac1609_4 	ReceivedUnicastPackets 	0
scalar LocScenario.node[17].nic.mac1609_4 	ReceivedBroadcasts 	13632
scalar LocScenario.node[17].nic.mac1609_4 	SentPackets 	1036
scalar LocScenario.node[17].nic.mac1609_4 	SNIRLostPackets 	1014
scalar LocScenario.node[17].nic.mac1609_4 	RXTXLostPackets 	0
scalar LocScenario.node[17].nic.mac1609_4 	TotalLostPackets 	1014
scalar LocScenario.node[17].nic.mac1609_4 	DroppedPacketsInMac 	0
scalar LocScenario.node[17].nic.mac1609_4 	TooLittleTime 	0
scalar LocScenario.node[17].nic.mac1609_4 	TimesIntoBackoff 	1036
scalar LocScenario.node[17].nic.mac1609_4 	SlotsBackoff 	1516
scalar LocScenario.node[17].nic.mac1609_4 	NumInternalContention 	0
scalar LocScenario.node[17].nic.mac1609_4 	totalBusyTime 	1.579236
scalar LocScenario.node[17].veinsmobility 	startTime 	19.3
scalar LocScenario.node[17].veinsmobility 	totalTime 	51.8
scalar LocScenario.node[17].veinsmobility 	stopTime 	71.150080239211
scalar LocScenario.node[17].veinsmobility 	minSpeed 	10.450172462605
scalar LocScenario.node[17].veinsmobility 	maxSpeed 	10.49978691499
scalar LocScenario.node[17].veinsmobility 	totalDistance 	546.13831082175
scalar LocScenario.node[17].veinsmobility 	totalCO2Emission 	89.333779807457
scalar LocScenario.node[19].appl 	generatedWSMs 	0
scalar LocScenario.node[19].appl 	receivedWSMs 	0
scalar LocScenario.node[19].appl 	generatedBSMs 	989
scalar LocScenario.node[19].appl 	receivedBSMs 	13680
scalar LocScenario.node[19].appl 	generatedWSAs 	0
scalar LocScenario.node[19].appl 	receivedWSAs 	0
scalar LocScenario.node[19].appl 	rmseGPS 	85.914577382315
scalar LocScenario.node[19].appl 	rmseDRCP 	7.1040513591848
scalar LocScenario.node[19].appl 	timeOutage 	29.7
scalar LocScenario.node[19].nic.phy80211p 	busyTime 	0.030095805563938
scalar LocScenario.node[19].nic.mac1609_4 	ReceivedUnicastPackets 	0
scalar LocScenario.node[19].nic.mac1609_4 	ReceivedBroadcasts 	13680
scalar LocScenario.node[19].nic.mac1609_4 	SentPackets 	989
scalar LocScenario.node[19].nic.mac1609_4 	SNIRLostPackets 	630
scalar LocScenario.node[19].nic.mac1609_4 	RXTXLostPackets 	0
scalar LocScenario.node[19].nic.mac1609_4 	TotalLostPackets 	630
scalar LocScenario.node[19].nic.mac1609_4 	DroppedPacketsInMac 	0
scalar LocScenario.node[19].nic.mac1609_4 	TooLittleTime 	0
scalar LocScenario.node[19].nic.mac1609_4 	TimesIntoBackoff 	989
scalar LocScenario.node[19].nic.mac1609_4 	SlotsBackoff 	1438
scalar LocScenario.node[19].nic.mac1609_4 	NumInternalContention 	0
scalar LocScenario.node[19].nic.mac1609_4 	totalBusyTime 	1.558493
scalar LocScenario.node[19].veinsmobility 	startTime 	21.7
scalar LocScenario.node[19].veinsmobility 	totalTime 	49.4
scalar LocScenario.node[19].veinsmobility 	stopTime 	71.150080239211
scalar LocScenario.node[19].veinsmobility 	minSpeed 	10.450100299821
scalar LocScenario.node[19].veinsmobility 	maxSpeed 	10.499904276046
scalar LocScenario.node[19].veinsmobility 	totalDistance 	516.09246060568
scalar LocScenario.node[19].veinsmobility 	totalCO2Emission 	85.439353449866
scalar LocScenario.rsu[0].appl 	generatedWSMs 	0
scalar LocScenario.rsu[0].appl 	receivedWSMs 	0
scalar LocScenario.rsu[0].appl 	generatedBSMs 	0
scalar LocScenario.rsu[0].appl 	receivedBSMs 	1939
scalar LocScenario.rsu[0].appl 	generatedWSAs 	0
scalar LocScenario.rsu[0].appl 	receivedWSAs 	0
scalar LocScenario.rsu[0].appl 	rmseGPS 	-nan
scalar LocScenario.rsu[0].appl 	rmseDRCP 	-nan
scalar LocScenario.rsu[0].appl 	timeOutage 	0
scalar LocScenario.rsu[0].nic.phy80211p 	busyTime 	0.002943861753856
scalar LocScenario.rsu[0].nic.mac1609_4 	ReceivedUnicastPackets 	0
scalar LocScenario.rsu[0].nic.mac1609_4 	ReceivedBroadcasts 	1939
scalar LocScenario.rsu[0].nic.mac1609_4 	SentPackets 	0
scalar LocScenario.rsu[0].nic.mac1609_4 	SNIRLostPackets 	74
scalar LocScenario.rsu[0].nic.mac1609_4 	RXTXLostPackets 	0
scalar LocScenario.rsu[0].nic.mac1609_4 	TotalLostPackets 	74
scalar LocScenario.rsu[0].nic.mac1609_4 	DroppedPacketsInMac 	0
scalar LocScenario.rsu[0].nic.mac1609_4 	TooLittleTime 	0
scalar LocScenario.rsu[0].nic.mac1609_4 	TimesIntoBackoff 	0
scalar LocScenario.rsu[0].nic.mac1609_4 	SlotsBackoff 	0
scalar LocScenario.rsu[0].nic.mac1609_4 	NumInternalContention 	0
scalar LocScenario.rsu[0].nic.mac1609_4 	totalBusyTime 	0.209352
scalar LocScenario.outagesServer.appl 	generatedWSMs 	841818168
scalar LocScenario.outagesServer.appl 	receivedWSMs 	540292403
scalar LocScenario.outagesServer.appl 	generatedBSMs 	0
scalar LocScenario.outagesServer.appl 	receivedBSMs 	757086008
scalar LocScenario.outagesServer.appl 	generatedWSAs 	909325102
scalar LocScenario.outagesServer.appl 	receivedWSAs 	0
scalar LocScenario.outagesServer.nic.phy80211p 	busyTime 	0
scalar LocScenario.outagesServer.nic.mac1609_4 	ReceivedUnicastPackets 	0
scalar LocScenario.outagesServer.nic.mac1609_4 	ReceivedBroadcasts 	0
scalar LocScenario.outagesServer.nic.mac1609_4 	SentPackets 	0
scalar LocScenario.outagesServer.nic.mac1609_4 	SNIRLostPackets 	0
scalar LocScenario.outagesServer.nic.mac1609_4 	RXTXLostPackets 	0
scalar LocScenario.outagesServer.nic.mac1609_4 	TotalLostPackets 	0
scalar LocScenario.outagesServer.nic.mac1609_4 	DroppedPacketsInMac 	0
scalar LocScenario.outagesServer.nic.mac1609_4 	TooLittleTime 	0
scalar LocScenario.outagesServer.nic.mac1609_4 	TimesIntoBackoff 	0
scalar LocScenario.outagesServer.nic.mac1609_4 	SlotsBackoff 	0
scalar LocScenario.outagesServer.nic.mac1609_4 	NumInternalContention 	0
scalar LocScenario.outagesServer.nic.mac1609_4 	totalBusyTime 	0
