version 2
run DMAT-0-20170731-16:48:09-15073
attr configname DMAT
attr datetime 20170731-16:48:09
attr experiment DMAT
attr inifile omnetpp.ini
attr iterationvars "$logDistVehPar=25, $totHops=1"
attr iterationvars2 "$logDistVehPar=25, $totHops=1, $repetition=0"
attr logDistVehPar 25
attr measurement "$logDistVehPar=25, $totHops=1"
attr network com.liborio.cooperativepositioning.LocScenario
attr processid 15073
attr repetition 0
attr replication #0
attr resultdir results
attr runnumber 0
attr seedset 2
attr totHops 1
param **.coreDebug false
param **.debug false
param *.annotations.draw false
param *.connectionManager.drawMaxIntfDist false
param *.connectionManager.maxInterfDist 600m
param *.connectionManager.sendDirect true
param *.manager.autoShutdown true
param *.manager.host "\"localhost\""
param *.manager.launchConfig "xmldoc(\"dmat-\"+string(${logDistVehPar = 25,50, 100, 150})+\".launchd.xml\")"
param *.manager.port 9999
param *.manager.updateInterval 0.1s
param *.node[*].appl.beaconInterval 0.1s
param *.node[*].appl.dataOnSch false
param *.node[*].appl.forwardBeacons true
param *.node[*].appl.forwardInterval 0.1s
param *.node[*].appl.headerLength "80 bit"
param *.node[*].appl.logDistVehPar ${logDistVehPar}
param *.node[*].appl.logSeedPar ${seedset}
param *.node[*].appl.numHops ${totHops=1,2,3,4,5}
param *.node[*].appl.sendBeacons true
param *.node[*].applType "\"LocAppCom\""
param *.node[*].nic.mac1609_4.bitrate 6Mbps
param *.node[*].nic.mac1609_4.txPower 20mW
param *.node[*].nic.mac1609_4.useServiceChannel false
param *.node[*].nic.phy80211p.analogueModels "xmldoc(\"config.xml\")"
param *.node[*].nic.phy80211p.antenna "xmldoc(\"antenna.xml\", \"/root/Antenna[@id='monopole']\")"
param *.node[*].nic.phy80211p.decider "xmldoc(\"config.xml\")"
param *.node[*].nic.phy80211p.sensitivity -84.39dBm
param *.node[*].nic.phy80211p.thermalNoise -110dBm
param *.node[*].nic.phy80211p.usePropagationDelay true
param *.node[*].nic.phy80211p.useThermalNoise true
param *.node[*].veinsmobility.x 0
param *.node[*].veinsmobility.y 0
param *.node[*].veinsmobility.z 1.895
param *.node[*].veinsmobilityType.debug true
param *.outagesServer.appl.beaconInterval 0.1s
param *.outagesServer.appl.beaconPriority 3
param *.outagesServer.appl.dataOnSch false
param *.outagesServer.appl.dataPriority 2
param *.outagesServer.appl.headerLength "80 bit"
param *.outagesServer.appl.sendBeacons false
param *.outagesServer.applType "\"Outages\""
param *.outagesServer.mobility.x 5000.0
param *.outagesServer.mobility.y 10.0
param *.outagesServer.mobility.z 3
param *.outagesServer.nic.mac1609_4.bitrate 6Mbps
param *.outagesServer.nic.mac1609_4.txPower 20mW
param *.outagesServer.nic.mac1609_4.useServiceChannel false
param *.outagesServer.nic.phy80211p.analogueModels "xmldoc(\"config.xml\")"
param *.outagesServer.nic.phy80211p.antenna "xmldoc(\"antenna.xml\", \"/root/Antenna[@id='monopole']\")"
param *.outagesServer.nic.phy80211p.decider "xmldoc(\"config.xml\")"
param *.outagesServer.nic.phy80211p.sensitivity -90.41dBm
param *.outagesServer.nic.phy80211p.thermalNoise -110dBm
param *.outagesServer.nic.phy80211p.usePropagationDelay true
param *.outagesServer.nic.phy80211p.useThermalNoise true
param *.playgroundSizeX 5500m
param *.playgroundSizeY 5500m
param *.playgroundSizeZ 50m
param *.rsu[*].appl.beaconInterval 0.1s
param *.rsu[*].appl.beaconPriority 3
param *.rsu[*].appl.dataOnSch false
param *.rsu[*].appl.dataPriority 2
param *.rsu[*].appl.forwardBeacons false
param *.rsu[*].appl.forwardInterval 0.1s
param *.rsu[*].appl.headerLength "80 bit"
param *.rsu[*].appl.numHops ${totHops}
param *.rsu[*].appl.sendBeacons false
param *.rsu[*].applType "\"RSU\""
param *.rsu[*].nic.mac1609_4.bitrate 6Mbps
param *.rsu[*].nic.mac1609_4.txPower 20mW
param *.rsu[*].nic.mac1609_4.useServiceChannel false
param *.rsu[*].nic.phy80211p.analogueModels "xmldoc(\"config.xml\")"
param *.rsu[*].nic.phy80211p.antenna "xmldoc(\"antenna.xml\", \"/root/Antenna[@id='monopole']\")"
param *.rsu[*].nic.phy80211p.decider "xmldoc(\"config.xml\")"
param *.rsu[*].nic.phy80211p.sensitivity -90.41dBm
param *.rsu[*].nic.phy80211p.thermalNoise -110dBm
param *.rsu[*].nic.phy80211p.usePropagationDelay true
param *.rsu[*].nic.phy80211p.useThermalNoise true
param *.rsu[0].mobility.x 385.772
param *.rsu[0].mobility.y 1238.66
param *.rsu[0].mobility.z 3

scalar . 	logDistVehPar 	25
scalar . 	totHops 	1
scalar LocScenario.node[0].appl 	generatedWSMs 	0
scalar LocScenario.node[0].appl 	receivedWSMs 	0
scalar LocScenario.node[0].appl 	generatedBSMs 	1397
scalar LocScenario.node[0].appl 	receivedBSMs 	10181
scalar LocScenario.node[0].appl 	generatedWSAs 	0
scalar LocScenario.node[0].appl 	receivedWSAs 	0
scalar LocScenario.node[0].appl 	rmseGPS 	342.9698981876
scalar LocScenario.node[0].appl 	rmseDRCP 	8.3137739671359
scalar LocScenario.node[0].appl 	timeOutage 	67.9
scalar LocScenario.node[0].nic.phy80211p 	busyTime 	0.014906560533626
scalar LocScenario.node[0].nic.mac1609_4 	ReceivedUnicastPackets 	0
scalar LocScenario.node[0].nic.mac1609_4 	ReceivedBroadcasts 	10181
scalar LocScenario.node[0].nic.mac1609_4 	SentPackets 	1397
scalar LocScenario.node[0].nic.mac1609_4 	SNIRLostPackets 	0
scalar LocScenario.node[0].nic.mac1609_4 	RXTXLostPackets 	0
scalar LocScenario.node[0].nic.mac1609_4 	TotalLostPackets 	0
scalar LocScenario.node[0].nic.mac1609_4 	DroppedPacketsInMac 	0
scalar LocScenario.node[0].nic.mac1609_4 	TooLittleTime 	0
scalar LocScenario.node[0].nic.mac1609_4 	TimesIntoBackoff 	1397
scalar LocScenario.node[0].nic.mac1609_4 	SlotsBackoff 	2151
scalar LocScenario.node[0].nic.mac1609_4 	NumInternalContention 	0
scalar LocScenario.node[0].nic.mac1609_4 	totalBusyTime 	1.205509
scalar LocScenario.node[0].veinsmobility 	startTime 	0.1
scalar LocScenario.node[0].veinsmobility 	totalTime 	71
scalar LocScenario.node[0].veinsmobility 	stopTime 	71.130738285436
scalar LocScenario.node[0].veinsmobility 	minSpeed 	10.450009571214
scalar LocScenario.node[0].veinsmobility 	maxSpeed 	10.499868466612
scalar LocScenario.node[0].veinsmobility 	totalDistance 	743.33699661147
scalar LocScenario.node[0].veinsmobility 	totalCO2Emission 	122.39557325874
scalar LocScenario.node[2].appl 	generatedWSMs 	0
scalar LocScenario.node[2].appl 	receivedWSMs 	0
scalar LocScenario.node[2].appl 	generatedBSMs 	1357
scalar LocScenario.node[2].appl 	receivedBSMs 	11190
scalar LocScenario.node[2].appl 	generatedWSAs 	0
scalar LocScenario.node[2].appl 	receivedWSAs 	0
scalar LocScenario.node[2].appl 	rmseGPS 	59.467080079374
scalar LocScenario.node[2].appl 	rmseDRCP 	11.04851566305
scalar LocScenario.node[2].appl 	timeOutage 	25.9
scalar LocScenario.node[2].nic.phy80211p 	busyTime 	0.016956833469575
scalar LocScenario.node[2].nic.mac1609_4 	ReceivedUnicastPackets 	0
scalar LocScenario.node[2].nic.mac1609_4 	ReceivedBroadcasts 	11190
scalar LocScenario.node[2].nic.mac1609_4 	SentPackets 	1357
scalar LocScenario.node[2].nic.mac1609_4 	SNIRLostPackets 	0
scalar LocScenario.node[2].nic.mac1609_4 	RXTXLostPackets 	0
scalar LocScenario.node[2].nic.mac1609_4 	TotalLostPackets 	0
scalar LocScenario.node[2].nic.mac1609_4 	DroppedPacketsInMac 	0
scalar LocScenario.node[2].nic.mac1609_4 	TooLittleTime 	0
scalar LocScenario.node[2].nic.mac1609_4 	TimesIntoBackoff 	1357
scalar LocScenario.node[2].nic.mac1609_4 	SlotsBackoff 	2001
scalar LocScenario.node[2].nic.mac1609_4 	NumInternalContention 	0
scalar LocScenario.node[2].nic.mac1609_4 	totalBusyTime 	1.306245
scalar LocScenario.node[2].veinsmobility 	startTime 	2.5
scalar LocScenario.node[2].veinsmobility 	totalTime 	68.6
scalar LocScenario.node[2].veinsmobility 	stopTime 	71.130738285436
scalar LocScenario.node[2].veinsmobility 	minSpeed 	10.45004398335
scalar LocScenario.node[2].veinsmobility 	maxSpeed 	10.499864839285
scalar LocScenario.node[2].veinsmobility 	totalDistance 	718.11953707441
scalar LocScenario.node[2].veinsmobility 	totalCO2Emission 	118.3565124718
scalar LocScenario.node[20].appl 	generatedWSMs 	0
scalar LocScenario.node[20].appl 	receivedWSMs 	0
scalar LocScenario.node[20].appl 	generatedBSMs 	941
scalar LocScenario.node[20].appl 	receivedBSMs 	14222
scalar LocScenario.node[20].appl 	generatedWSAs 	0
scalar LocScenario.node[20].appl 	receivedWSAs 	0
scalar LocScenario.node[20].appl 	rmseGPS 	52.598848985999
scalar LocScenario.node[20].appl 	rmseDRCP 	7.8664787965317
scalar LocScenario.node[20].appl 	timeOutage 	20.9
scalar LocScenario.node[20].nic.phy80211p 	busyTime 	0.031449389355184
scalar LocScenario.node[20].nic.mac1609_4 	ReceivedUnicastPackets 	0
scalar LocScenario.node[20].nic.mac1609_4 	ReceivedBroadcasts 	14222
scalar LocScenario.node[20].nic.mac1609_4 	SentPackets 	941
scalar LocScenario.node[20].nic.mac1609_4 	SNIRLostPackets 	0
scalar LocScenario.node[20].nic.mac1609_4 	RXTXLostPackets 	0
scalar LocScenario.node[20].nic.mac1609_4 	TotalLostPackets 	0
scalar LocScenario.node[20].nic.mac1609_4 	DroppedPacketsInMac 	0
scalar LocScenario.node[20].nic.mac1609_4 	TooLittleTime 	0
scalar LocScenario.node[20].nic.mac1609_4 	TimesIntoBackoff 	941
scalar LocScenario.node[20].nic.mac1609_4 	SlotsBackoff 	1391
scalar LocScenario.node[20].nic.mac1609_4 	NumInternalContention 	0
scalar LocScenario.node[20].nic.mac1609_4 	totalBusyTime 	1.577893
scalar LocScenario.node[20].veinsmobility 	startTime 	24.1
scalar LocScenario.node[20].veinsmobility 	totalTime 	47
scalar LocScenario.node[20].veinsmobility 	stopTime 	71.130738285436
scalar LocScenario.node[20].veinsmobility 	minSpeed 	10.450007308309
scalar LocScenario.node[20].veinsmobility 	maxSpeed 	10.499968856142
scalar LocScenario.node[20].veinsmobility 	totalDistance 	495.03492134815
scalar LocScenario.node[20].veinsmobility 	totalCO2Emission 	81.150290206334
scalar LocScenario.node[22].appl 	generatedWSMs 	0
scalar LocScenario.node[22].appl 	receivedWSMs 	0
scalar LocScenario.node[22].appl 	generatedBSMs 	892
scalar LocScenario.node[22].appl 	receivedBSMs 	13461
scalar LocScenario.node[22].appl 	generatedWSAs 	0
scalar LocScenario.node[22].appl 	receivedWSAs 	0
scalar LocScenario.node[22].appl 	rmseGPS 	113.13593194077
scalar LocScenario.node[22].appl 	rmseDRCP 	5.099059819171
scalar LocScenario.node[22].appl 	timeOutage 	30.3
scalar LocScenario.node[22].nic.phy80211p 	busyTime 	0.031367260632056
scalar LocScenario.node[22].nic.mac1609_4 	ReceivedUnicastPackets 	0
scalar LocScenario.node[22].nic.mac1609_4 	ReceivedBroadcasts 	13461
scalar LocScenario.node[22].nic.mac1609_4 	SentPackets 	892
scalar LocScenario.node[22].nic.mac1609_4 	SNIRLostPackets 	0
scalar LocScenario.node[22].nic.mac1609_4 	RXTXLostPackets 	0
scalar LocScenario.node[22].nic.mac1609_4 	TotalLostPackets 	0
scalar LocScenario.node[22].nic.mac1609_4 	DroppedPacketsInMac 	0
scalar LocScenario.node[22].nic.mac1609_4 	TooLittleTime 	0
scalar LocScenario.node[22].nic.mac1609_4 	TimesIntoBackoff 	892
scalar LocScenario.node[22].nic.mac1609_4 	SlotsBackoff 	1369
scalar LocScenario.node[22].nic.mac1609_4 	NumInternalContention 	0
scalar LocScenario.node[22].nic.mac1609_4 	totalBusyTime 	1.493604
scalar LocScenario.node[22].veinsmobility 	startTime 	26.5
scalar LocScenario.node[22].veinsmobility 	totalTime 	44.6
scalar LocScenario.node[22].veinsmobility 	stopTime 	71.130738285436
scalar LocScenario.node[22].veinsmobility 	minSpeed 	10.450183135003
scalar LocScenario.node[22].veinsmobility 	maxSpeed 	10.499981632491
scalar LocScenario.node[22].veinsmobility 	totalDistance 	466.1043396651
scalar LocScenario.node[22].veinsmobility 	totalCO2Emission 	76.905627124976
scalar LocScenario.node[24].appl 	generatedWSMs 	0
scalar LocScenario.node[24].appl 	receivedWSMs 	0
scalar LocScenario.node[24].appl 	generatedBSMs 	845
scalar LocScenario.node[24].appl 	receivedBSMs 	12650
scalar LocScenario.node[24].appl 	generatedWSAs 	0
scalar LocScenario.node[24].appl 	receivedWSAs 	0
scalar LocScenario.node[24].appl 	rmseGPS 	10.762030803806
scalar LocScenario.node[24].appl 	rmseDRCP 	9.361461806853
scalar LocScenario.node[24].appl 	timeOutage 	3.7
scalar LocScenario.node[24].nic.phy80211p 	busyTime 	0.03115266399342
scalar LocScenario.node[24].nic.mac1609_4 	ReceivedUnicastPackets 	0
scalar LocScenario.node[24].nic.mac1609_4 	ReceivedBroadcasts 	12650
scalar LocScenario.node[24].nic.mac1609_4 	SentPackets 	845
scalar LocScenario.node[24].nic.mac1609_4 	SNIRLostPackets 	0
scalar LocScenario.node[24].nic.mac1609_4 	RXTXLostPackets 	0
scalar LocScenario.node[24].nic.mac1609_4 	TotalLostPackets 	0
scalar LocScenario.node[24].nic.mac1609_4 	DroppedPacketsInMac 	0
scalar LocScenario.node[24].nic.mac1609_4 	TooLittleTime 	0
scalar LocScenario.node[24].nic.mac1609_4 	TimesIntoBackoff 	845
scalar LocScenario.node[24].nic.mac1609_4 	SlotsBackoff 	1252
scalar LocScenario.node[24].nic.mac1609_4 	NumInternalContention 	0
scalar LocScenario.node[24].nic.mac1609_4 	totalBusyTime 	1.404325
scalar LocScenario.node[24].veinsmobility 	startTime 	28.9
scalar LocScenario.node[24].veinsmobility 	totalTime 	42.2
scalar LocScenario.node[24].veinsmobility 	stopTime 	71.130738285436
scalar LocScenario.node[24].veinsmobility 	minSpeed 	10.450077797729
scalar LocScenario.node[24].veinsmobility 	maxSpeed 	10.499952634517
scalar LocScenario.node[24].veinsmobility 	totalDistance 	441.03570388571
scalar LocScenario.node[24].veinsmobility 	totalCO2Emission 	72.909463545492
scalar LocScenario.node[26].appl 	generatedWSMs 	0
scalar LocScenario.node[26].appl 	receivedWSMs 	0
scalar LocScenario.node[26].appl 	generatedBSMs 	796
scalar LocScenario.node[26].appl 	receivedBSMs 	11777
scalar LocScenario.node[26].appl 	generatedWSAs 	0
scalar LocScenario.node[26].appl 	receivedWSAs 	0
scalar LocScenario.node[26].appl 	rmseGPS 	59.39292725208
scalar LocScenario.node[26].appl 	rmseDRCP 	5.828786488448
scalar LocScenario.node[26].appl 	timeOutage 	20.7
scalar LocScenario.node[26].nic.phy80211p 	busyTime 	0.030750321302681
scalar LocScenario.node[26].nic.mac1609_4 	ReceivedUnicastPackets 	0
scalar LocScenario.node[26].nic.mac1609_4 	ReceivedBroadcasts 	11777
scalar LocScenario.node[26].nic.mac1609_4 	SentPackets 	796
scalar LocScenario.node[26].nic.mac1609_4 	SNIRLostPackets 	0
scalar LocScenario.node[26].nic.mac1609_4 	RXTXLostPackets 	0
scalar LocScenario.node[26].nic.mac1609_4 	TotalLostPackets 	0
scalar LocScenario.node[26].nic.mac1609_4 	DroppedPacketsInMac 	0
scalar LocScenario.node[26].nic.mac1609_4 	TooLittleTime 	0
scalar LocScenario.node[26].nic.mac1609_4 	TimesIntoBackoff 	796
scalar LocScenario.node[26].nic.mac1609_4 	SlotsBackoff 	1134
scalar LocScenario.node[26].nic.mac1609_4 	NumInternalContention 	0
scalar LocScenario.node[26].nic.mac1609_4 	totalBusyTime 	1.308388
scalar LocScenario.node[26].veinsmobility 	startTime 	31.3
scalar LocScenario.node[26].veinsmobility 	totalTime 	39.8
scalar LocScenario.node[26].veinsmobility 	stopTime 	71.130738285436
scalar LocScenario.node[26].veinsmobility 	minSpeed 	10.450005135685
scalar LocScenario.node[26].veinsmobility 	maxSpeed 	10.499795635231
scalar LocScenario.node[26].veinsmobility 	totalDistance 	417.14731507427
scalar LocScenario.node[26].veinsmobility 	totalCO2Emission 	68.461033701624
scalar LocScenario.node[28].appl 	generatedWSMs 	0
scalar LocScenario.node[28].appl 	receivedWSMs 	0
scalar LocScenario.node[28].appl 	generatedBSMs 	747
scalar LocScenario.node[28].appl 	receivedBSMs 	10952
scalar LocScenario.node[28].appl 	generatedWSAs 	0
scalar LocScenario.node[28].appl 	receivedWSAs 	0
scalar LocScenario.node[28].appl 	rmseGPS 	37.678989273951
scalar LocScenario.node[28].appl 	rmseDRCP 	7.7452789556489
scalar LocScenario.node[28].appl 	timeOutage 	14.2
scalar LocScenario.node[28].nic.phy80211p 	busyTime 	0.030429749777157
scalar LocScenario.node[28].nic.mac1609_4 	ReceivedUnicastPackets 	0
scalar LocScenario.node[28].nic.mac1609_4 	ReceivedBroadcasts 	10952
scalar LocScenario.node[28].nic.mac1609_4 	SentPackets 	747
scalar LocScenario.node[28].nic.mac1609_4 	SNIRLostPackets 	0
scalar LocScenario.node[28].nic.mac1609_4 	RXTXLostPackets 	0
scalar LocScenario.node[28].nic.mac1609_4 	TotalLostPackets 	0
scalar LocScenario.node[28].nic.mac1609_4 	DroppedPacketsInMac 	0
scalar LocScenario.node[28].nic.mac1609_4 	TooLittleTime 	0
scalar LocScenario.node[28].nic.mac1609_4 	TimesIntoBackoff 	747
scalar LocScenario.node[28].nic.mac1609_4 	SlotsBackoff 	1114
scalar LocScenario.node[28].nic.mac1609_4 	NumInternalContention 	0
scalar LocScenario.node[28].nic.mac1609_4 	totalBusyTime 	1.217443
scalar LocScenario.node[28].veinsmobility 	startTime 	33.7
scalar LocScenario.node[28].veinsmobility 	totalTime 	37.4
scalar LocScenario.node[28].veinsmobility 	stopTime 	71.130738285436
scalar LocScenario.node[28].veinsmobility 	minSpeed 	10.450044910994
scalar LocScenario.node[28].veinsmobility 	maxSpeed 	10.499806675909
scalar LocScenario.node[28].veinsmobility 	totalDistance 	394.30394907516
scalar LocScenario.node[28].veinsmobility 	totalCO2Emission 	64.430897940413
scalar LocScenario.node[30].appl 	generatedWSMs 	0
scalar LocScenario.node[30].appl 	receivedWSMs 	0
scalar LocScenario.node[30].appl 	generatedBSMs 	700
scalar LocScenario.node[30].appl 	receivedBSMs 	10126
scalar LocScenario.node[30].appl 	generatedWSAs 	0
scalar LocScenario.node[30].appl 	receivedWSAs 	0
scalar LocScenario.node[30].appl 	rmseGPS 	8.9921356966914
scalar LocScenario.node[30].appl 	rmseDRCP 	8.9369817024852
scalar LocScenario.node[30].appl 	timeOutage 	2
scalar LocScenario.node[30].nic.phy80211p 	busyTime 	0.030062283912464
scalar LocScenario.node[30].nic.mac1609_4 	ReceivedUnicastPackets 	0
scalar LocScenario.node[30].nic.mac1609_4 	ReceivedBroadcasts 	10126
scalar LocScenario.node[30].nic.mac1609_4 	SentPackets 	700
scalar LocScenario.node[30].nic.mac1609_4 	SNIRLostPackets 	0
scalar LocScenario.node[30].nic.mac1609_4 	RXTXLostPackets 	0
scalar LocScenario.node[30].nic.mac1609_4 	TotalLostPackets 	0
scalar LocScenario.node[30].nic.mac1609_4 	DroppedPacketsInMac 	0
scalar LocScenario.node[30].nic.mac1609_4 	TooLittleTime 	0
scalar LocScenario.node[30].nic.mac1609_4 	TimesIntoBackoff 	700
scalar LocScenario.node[30].nic.mac1609_4 	SlotsBackoff 	1049
scalar LocScenario.node[30].nic.mac1609_4 	NumInternalContention 	0
scalar LocScenario.node[30].nic.mac1609_4 	totalBusyTime 	1.126604
scalar LocScenario.node[30].veinsmobility 	startTime 	36.1
scalar LocScenario.node[30].veinsmobility 	totalTime 	35
scalar LocScenario.node[30].veinsmobility 	stopTime 	71.130738285436
scalar LocScenario.node[30].veinsmobility 	minSpeed 	10.450014580821
scalar LocScenario.node[30].veinsmobility 	maxSpeed 	10.499868757115
scalar LocScenario.node[30].veinsmobility 	totalDistance 	365.62767849121
scalar LocScenario.node[30].veinsmobility 	totalCO2Emission 	60.351536848456
scalar LocScenario.node[32].appl 	generatedWSMs 	0
scalar LocScenario.node[32].appl 	receivedWSMs 	0
scalar LocScenario.node[32].appl 	generatedBSMs 	652
scalar LocScenario.node[32].appl 	receivedBSMs 	9245
scalar LocScenario.node[32].appl 	generatedWSAs 	0
scalar LocScenario.node[32].appl 	receivedWSAs 	0
scalar LocScenario.node[32].appl 	rmseGPS 	8.5952197395034
scalar LocScenario.node[32].appl 	rmseDRCP 	8.5952197395034
scalar LocScenario.node[32].appl 	timeOutage 	-71.063440847001
scalar LocScenario.node[32].nic.phy80211p 	busyTime 	0.029465468773322
scalar LocScenario.node[32].nic.mac1609_4 	ReceivedUnicastPackets 	0
scalar LocScenario.node[32].nic.mac1609_4 	ReceivedBroadcasts 	9245
scalar LocScenario.node[32].nic.mac1609_4 	SentPackets 	652
scalar LocScenario.node[32].nic.mac1609_4 	SNIRLostPackets 	0
scalar LocScenario.node[32].nic.mac1609_4 	RXTXLostPackets 	0
scalar LocScenario.node[32].nic.mac1609_4 	TotalLostPackets 	0
scalar LocScenario.node[32].nic.mac1609_4 	DroppedPacketsInMac 	0
scalar LocScenario.node[32].nic.mac1609_4 	TooLittleTime 	0
scalar LocScenario.node[32].nic.mac1609_4 	TimesIntoBackoff 	652
scalar LocScenario.node[32].nic.mac1609_4 	SlotsBackoff 	1052
scalar LocScenario.node[32].nic.mac1609_4 	NumInternalContention 	0
scalar LocScenario.node[32].nic.mac1609_4 	totalBusyTime 	1.02994
scalar LocScenario.node[32].veinsmobility 	startTime 	38.5
scalar LocScenario.node[32].veinsmobility 	totalTime 	32.6
scalar LocScenario.node[32].veinsmobility 	stopTime 	71.130738285436
scalar LocScenario.node[32].veinsmobility 	minSpeed 	10.45029689885
scalar LocScenario.node[32].veinsmobility 	maxSpeed 	10.499959369411
scalar LocScenario.node[32].veinsmobility 	totalDistance 	341.64213606497
scalar LocScenario.node[32].veinsmobility 	totalCO2Emission 	56.261092994109
scalar LocScenario.node[34].appl 	generatedWSMs 	0
scalar LocScenario.node[34].appl 	receivedWSMs 	0
scalar LocScenario.node[34].appl 	generatedBSMs 	605
scalar LocScenario.node[34].appl 	receivedBSMs 	8412
scalar LocScenario.node[34].appl 	generatedWSAs 	0
scalar LocScenario.node[34].appl 	receivedWSAs 	0
scalar LocScenario.node[34].appl 	rmseGPS 	8.6447096384218
scalar LocScenario.node[34].appl 	rmseDRCP 	8.6447096384218
scalar LocScenario.node[34].appl 	timeOutage 	-71.102009768272
scalar LocScenario.node[34].nic.phy80211p 	busyTime 	0.028939021989464
scalar LocScenario.node[34].nic.mac1609_4 	ReceivedUnicastPackets 	0
scalar LocScenario.node[34].nic.mac1609_4 	ReceivedBroadcasts 	8412
scalar LocScenario.node[34].nic.mac1609_4 	SentPackets 	605
scalar LocScenario.node[34].nic.mac1609_4 	SNIRLostPackets 	0
scalar LocScenario.node[34].nic.mac1609_4 	RXTXLostPackets 	0
scalar LocScenario.node[34].nic.mac1609_4 	TotalLostPackets 	0
scalar LocScenario.node[34].nic.mac1609_4 	DroppedPacketsInMac 	0
scalar LocScenario.node[34].nic.mac1609_4 	TooLittleTime 	0
scalar LocScenario.node[34].nic.mac1609_4 	TimesIntoBackoff 	605
scalar LocScenario.node[34].nic.mac1609_4 	SlotsBackoff 	887
scalar LocScenario.node[34].nic.mac1609_4 	NumInternalContention 	0
scalar LocScenario.node[34].nic.mac1609_4 	totalBusyTime 	0.938373
scalar LocScenario.node[34].veinsmobility 	startTime 	40.9
scalar LocScenario.node[34].veinsmobility 	totalTime 	30.2
scalar LocScenario.node[34].veinsmobility 	stopTime 	71.130738285436
scalar LocScenario.node[34].veinsmobility 	minSpeed 	10.45045111808
scalar LocScenario.node[34].veinsmobility 	maxSpeed 	10.49999637733
scalar LocScenario.node[34].veinsmobility 	totalDistance 	315.4067843788
scalar LocScenario.node[34].veinsmobility 	totalCO2Emission 	52.287698205701
scalar LocScenario.node[36].appl 	generatedWSMs 	0
scalar LocScenario.node[36].appl 	receivedWSMs 	0
scalar LocScenario.node[36].appl 	generatedBSMs 	555
scalar LocScenario.node[36].appl 	receivedBSMs 	7588
scalar LocScenario.node[36].appl 	generatedWSAs 	0
scalar LocScenario.node[36].appl 	receivedWSAs 	0
scalar LocScenario.node[36].appl 	rmseGPS 	8.666048315524
scalar LocScenario.node[36].appl 	rmseDRCP 	8.666048315524
scalar LocScenario.node[36].appl 	timeOutage 	-71.069237253233
scalar LocScenario.node[36].nic.phy80211p 	busyTime 	0.02835541019093
scalar LocScenario.node[36].nic.mac1609_4 	ReceivedUnicastPackets 	0
scalar LocScenario.node[36].nic.mac1609_4 	ReceivedBroadcasts 	7588
scalar LocScenario.node[36].nic.mac1609_4 	SentPackets 	555
scalar LocScenario.node[36].nic.mac1609_4 	SNIRLostPackets 	0
scalar LocScenario.node[36].nic.mac1609_4 	RXTXLostPackets 	0
scalar LocScenario.node[36].nic.mac1609_4 	TotalLostPackets 	0
scalar LocScenario.node[36].nic.mac1609_4 	DroppedPacketsInMac 	0
scalar LocScenario.node[36].nic.mac1609_4 	TooLittleTime 	0
scalar LocScenario.node[36].nic.mac1609_4 	TimesIntoBackoff 	689
scalar LocScenario.node[36].nic.mac1609_4 	SlotsBackoff 	984
scalar LocScenario.node[36].nic.mac1609_4 	NumInternalContention 	0
scalar LocScenario.node[36].nic.mac1609_4 	totalBusyTime 	0.847427
scalar LocScenario.node[36].veinsmobility 	startTime 	43.3
scalar LocScenario.node[36].veinsmobility 	totalTime 	27.8
scalar LocScenario.node[36].veinsmobility 	stopTime 	71.130738285436
scalar LocScenario.node[36].veinsmobility 	minSpeed 	10.450298868283
scalar LocScenario.node[36].veinsmobility 	maxSpeed 	10.499957467918
scalar LocScenario.node[36].veinsmobility 	totalDistance 	290.30068306259
scalar LocScenario.node[36].veinsmobility 	totalCO2Emission 	47.434415882198
scalar LocScenario.node[38].appl 	generatedWSMs 	0
scalar LocScenario.node[38].appl 	receivedWSMs 	0
scalar LocScenario.node[38].appl 	generatedBSMs 	508
scalar LocScenario.node[38].appl 	receivedBSMs 	6744
scalar LocScenario.node[38].appl 	generatedWSAs 	0
scalar LocScenario.node[38].appl 	receivedWSAs 	0
scalar LocScenario.node[38].appl 	rmseGPS 	15.647509924754
scalar LocScenario.node[38].appl 	rmseDRCP 	7.1610059546412
scalar LocScenario.node[38].appl 	timeOutage 	7.2
scalar LocScenario.node[38].nic.phy80211p 	busyTime 	0.027579852072232
scalar LocScenario.node[38].nic.mac1609_4 	ReceivedUnicastPackets 	0
scalar LocScenario.node[38].nic.mac1609_4 	ReceivedBroadcasts 	6744
scalar LocScenario.node[38].nic.mac1609_4 	SentPackets 	508
scalar LocScenario.node[38].nic.mac1609_4 	SNIRLostPackets 	0
scalar LocScenario.node[38].nic.mac1609_4 	RXTXLostPackets 	0
scalar LocScenario.node[38].nic.mac1609_4 	TotalLostPackets 	0
scalar LocScenario.node[38].nic.mac1609_4 	DroppedPacketsInMac 	0
scalar LocScenario.node[38].nic.mac1609_4 	TooLittleTime 	0
scalar LocScenario.node[38].nic.mac1609_4 	TimesIntoBackoff 	508
scalar LocScenario.node[38].nic.mac1609_4 	SlotsBackoff 	740
scalar LocScenario.node[38].nic.mac1609_4 	NumInternalContention 	0
scalar LocScenario.node[38].nic.mac1609_4 	totalBusyTime 	0.754716
scalar LocScenario.node[38].veinsmobility 	startTime 	45.7
scalar LocScenario.node[38].veinsmobility 	totalTime 	25.4
scalar LocScenario.node[38].veinsmobility 	stopTime 	71.130738285436
scalar LocScenario.node[38].veinsmobility 	minSpeed 	10.450100909185
scalar LocScenario.node[38].veinsmobility 	maxSpeed 	10.499931529502
scalar LocScenario.node[38].veinsmobility 	totalDistance 	268.54370853378
scalar LocScenario.node[38].veinsmobility 	totalCO2Emission 	43.545113054694
scalar LocScenario.node[4].appl 	generatedWSMs 	0
scalar LocScenario.node[4].appl 	receivedWSMs 	0
scalar LocScenario.node[4].appl 	generatedBSMs 	1324
scalar LocScenario.node[4].appl 	receivedBSMs 	12138
scalar LocScenario.node[4].appl 	generatedWSAs 	0
scalar LocScenario.node[4].appl 	receivedWSAs 	0
scalar LocScenario.node[4].appl 	rmseGPS 	168.64427215275
scalar LocScenario.node[4].appl 	rmseDRCP 	7.0834761192616
scalar LocScenario.node[4].appl 	timeOutage 	46.2
scalar LocScenario.node[4].nic.phy80211p 	busyTime 	0.019059911344485
scalar LocScenario.node[4].nic.mac1609_4 	ReceivedUnicastPackets 	0
scalar LocScenario.node[4].nic.mac1609_4 	ReceivedBroadcasts 	12138
scalar LocScenario.node[4].nic.mac1609_4 	SentPackets 	1324
scalar LocScenario.node[4].nic.mac1609_4 	SNIRLostPackets 	0
scalar LocScenario.node[4].nic.mac1609_4 	RXTXLostPackets 	0
scalar LocScenario.node[4].nic.mac1609_4 	TotalLostPackets 	0
scalar LocScenario.node[4].nic.mac1609_4 	DroppedPacketsInMac 	0
scalar LocScenario.node[4].nic.mac1609_4 	TooLittleTime 	0
scalar LocScenario.node[4].nic.mac1609_4 	TimesIntoBackoff 	1324
scalar LocScenario.node[4].nic.mac1609_4 	SlotsBackoff 	2036
scalar LocScenario.node[4].nic.mac1609_4 	NumInternalContention 	0
scalar LocScenario.node[4].nic.mac1609_4 	totalBusyTime 	1.401372
scalar LocScenario.node[4].veinsmobility 	startTime 	4.9
scalar LocScenario.node[4].veinsmobility 	totalTime 	66.2
scalar LocScenario.node[4].veinsmobility 	stopTime 	71.130738285436
scalar LocScenario.node[4].veinsmobility 	minSpeed 	10.45003960008
scalar LocScenario.node[4].veinsmobility 	maxSpeed 	10.499997232482
scalar LocScenario.node[4].veinsmobility 	totalDistance 	696.44060652552
scalar LocScenario.node[4].veinsmobility 	totalCO2Emission 	114.20935482344
scalar LocScenario.node[40].appl 	generatedWSMs 	0
scalar LocScenario.node[40].appl 	receivedWSMs 	0
scalar LocScenario.node[40].appl 	generatedBSMs 	460
scalar LocScenario.node[40].appl 	receivedBSMs 	5927
scalar LocScenario.node[40].appl 	generatedWSAs 	0
scalar LocScenario.node[40].appl 	receivedWSAs 	0
scalar LocScenario.node[40].appl 	rmseGPS 	8.7848991250177
scalar LocScenario.node[40].appl 	rmseDRCP 	8.7848991250177
scalar LocScenario.node[40].appl 	timeOutage 	-71.084589413903
scalar LocScenario.node[40].nic.phy80211p 	busyTime 	0.026764578380441
scalar LocScenario.node[40].nic.mac1609_4 	ReceivedUnicastPackets 	0
scalar LocScenario.node[40].nic.mac1609_4 	ReceivedBroadcasts 	5927
scalar LocScenario.node[40].nic.mac1609_4 	SentPackets 	460
scalar LocScenario.node[40].nic.mac1609_4 	SNIRLostPackets 	0
scalar LocScenario.node[40].nic.mac1609_4 	RXTXLostPackets 	0
scalar LocScenario.node[40].nic.mac1609_4 	TotalLostPackets 	0
scalar LocScenario.node[40].nic.mac1609_4 	DroppedPacketsInMac 	0
scalar LocScenario.node[40].nic.mac1609_4 	TooLittleTime 	0
scalar LocScenario.node[40].nic.mac1609_4 	TimesIntoBackoff 	460
scalar LocScenario.node[40].nic.mac1609_4 	SlotsBackoff 	695
scalar LocScenario.node[40].nic.mac1609_4 	NumInternalContention 	0
scalar LocScenario.node[40].nic.mac1609_4 	totalBusyTime 	0.664708
scalar LocScenario.node[40].veinsmobility 	startTime 	48.1
scalar LocScenario.node[40].veinsmobility 	totalTime 	23
scalar LocScenario.node[40].veinsmobility 	stopTime 	71.130738285436
scalar LocScenario.node[40].veinsmobility 	minSpeed 	10.450135778706
scalar LocScenario.node[40].veinsmobility 	maxSpeed 	10.499989652284
scalar LocScenario.node[40].veinsmobility 	totalDistance 	241.02214612198
scalar LocScenario.node[40].veinsmobility 	totalCO2Emission 	39.599341295204
scalar LocScenario.node[42].appl 	generatedWSMs 	0
scalar LocScenario.node[42].appl 	receivedWSMs 	0
scalar LocScenario.node[42].appl 	generatedBSMs 	413
scalar LocScenario.node[42].appl 	receivedBSMs 	5111
scalar LocScenario.node[42].appl 	generatedWSAs 	0
scalar LocScenario.node[42].appl 	receivedWSAs 	0
scalar LocScenario.node[42].appl 	rmseGPS 	9.1270027145539
scalar LocScenario.node[42].appl 	rmseDRCP 	9.1270027145539
scalar LocScenario.node[42].appl 	timeOutage 	-71.119805650413
scalar LocScenario.node[42].nic.phy80211p 	busyTime 	0.025764662061329
scalar LocScenario.node[42].nic.mac1609_4 	ReceivedUnicastPackets 	0
scalar LocScenario.node[42].nic.mac1609_4 	ReceivedBroadcasts 	5111
scalar LocScenario.node[42].nic.mac1609_4 	SentPackets 	413
scalar LocScenario.node[42].nic.mac1609_4 	SNIRLostPackets 	0
scalar LocScenario.node[42].nic.mac1609_4 	RXTXLostPackets 	0
scalar LocScenario.node[42].nic.mac1609_4 	TotalLostPackets 	0
scalar LocScenario.node[42].nic.mac1609_4 	DroppedPacketsInMac 	0
scalar LocScenario.node[42].nic.mac1609_4 	TooLittleTime 	0
scalar LocScenario.node[42].nic.mac1609_4 	TimesIntoBackoff 	413
scalar LocScenario.node[42].nic.mac1609_4 	SlotsBackoff 	548
scalar LocScenario.node[42].nic.mac1609_4 	NumInternalContention 	0
scalar LocScenario.node[42].nic.mac1609_4 	totalBusyTime 	0.574909
scalar LocScenario.node[42].veinsmobility 	startTime 	50.5
scalar LocScenario.node[42].veinsmobility 	totalTime 	20.6
scalar LocScenario.node[42].veinsmobility 	stopTime 	71.130738285436
scalar LocScenario.node[42].veinsmobility 	minSpeed 	10.45021687051
scalar LocScenario.node[42].veinsmobility 	maxSpeed 	10.499772096635
scalar LocScenario.node[42].veinsmobility 	totalDistance 	215.82032818384
scalar LocScenario.node[42].veinsmobility 	totalCO2Emission 	35.252576466829
scalar LocScenario.node[44].appl 	generatedWSMs 	0
scalar LocScenario.node[44].appl 	receivedWSMs 	0
scalar LocScenario.node[44].appl 	generatedBSMs 	364
scalar LocScenario.node[44].appl 	receivedBSMs 	4315
scalar LocScenario.node[44].appl 	generatedWSAs 	0
scalar LocScenario.node[44].appl 	receivedWSAs 	0
scalar LocScenario.node[44].appl 	rmseGPS 	43.760969781728
scalar LocScenario.node[44].appl 	rmseDRCP 	5.0801374969979
scalar LocScenario.node[44].appl 	timeOutage 	11.2
scalar LocScenario.node[44].nic.phy80211p 	busyTime 	0.024615569209201
scalar LocScenario.node[44].nic.mac1609_4 	ReceivedUnicastPackets 	0
scalar LocScenario.node[44].nic.mac1609_4 	ReceivedBroadcasts 	4315
scalar LocScenario.node[44].nic.mac1609_4 	SentPackets 	364
scalar LocScenario.node[44].nic.mac1609_4 	SNIRLostPackets 	0
scalar LocScenario.node[44].nic.mac1609_4 	RXTXLostPackets 	0
scalar LocScenario.node[44].nic.mac1609_4 	TotalLostPackets 	0
scalar LocScenario.node[44].nic.mac1609_4 	DroppedPacketsInMac 	0
scalar LocScenario.node[44].nic.mac1609_4 	TooLittleTime 	0
scalar LocScenario.node[44].nic.mac1609_4 	TimesIntoBackoff 	364
scalar LocScenario.node[44].nic.mac1609_4 	SlotsBackoff 	540
scalar LocScenario.node[44].nic.mac1609_4 	NumInternalContention 	0
scalar LocScenario.node[44].nic.mac1609_4 	totalBusyTime 	0.48698
scalar LocScenario.node[44].veinsmobility 	startTime 	52.9
scalar LocScenario.node[44].veinsmobility 	totalTime 	18.2
scalar LocScenario.node[44].veinsmobility 	stopTime 	71.130738285436
scalar LocScenario.node[44].veinsmobility 	minSpeed 	10.450179714826
scalar LocScenario.node[44].veinsmobility 	maxSpeed 	10.499963665148
scalar LocScenario.node[44].veinsmobility 	totalDistance 	190.65959124925
scalar LocScenario.node[44].veinsmobility 	totalCO2Emission 	31.170873348987
scalar LocScenario.node[46].appl 	generatedWSMs 	0
scalar LocScenario.node[46].appl 	receivedWSMs 	0
scalar LocScenario.node[46].appl 	generatedBSMs 	316
scalar LocScenario.node[46].appl 	receivedBSMs 	3567
scalar LocScenario.node[46].appl 	generatedWSAs 	0
scalar LocScenario.node[46].appl 	receivedWSAs 	0
scalar LocScenario.node[46].appl 	rmseGPS 	8.6891058444386
scalar LocScenario.node[46].appl 	rmseDRCP 	8.6891058444386
scalar LocScenario.node[46].appl 	timeOutage 	-71.10185783722
scalar LocScenario.node[46].nic.phy80211p 	busyTime 	0.023433398576317
scalar LocScenario.node[46].nic.mac1609_4 	ReceivedUnicastPackets 	0
scalar LocScenario.node[46].nic.mac1609_4 	ReceivedBroadcasts 	3567
scalar LocScenario.node[46].nic.mac1609_4 	SentPackets 	316
scalar LocScenario.node[46].nic.mac1609_4 	SNIRLostPackets 	0
scalar LocScenario.node[46].nic.mac1609_4 	RXTXLostPackets 	0
scalar LocScenario.node[46].nic.mac1609_4 	TotalLostPackets 	0
scalar LocScenario.node[46].nic.mac1609_4 	DroppedPacketsInMac 	0
scalar LocScenario.node[46].nic.mac1609_4 	TooLittleTime 	0
scalar LocScenario.node[46].nic.mac1609_4 	TimesIntoBackoff 	316
scalar LocScenario.node[46].nic.mac1609_4 	SlotsBackoff 	478
scalar LocScenario.node[46].nic.mac1609_4 	NumInternalContention 	0
scalar LocScenario.node[46].nic.mac1609_4 	totalBusyTime 	0.404148
scalar LocScenario.node[46].veinsmobility 	startTime 	55.3
scalar LocScenario.node[46].veinsmobility 	totalTime 	15.8
scalar LocScenario.node[46].veinsmobility 	stopTime 	71.130738285436
scalar LocScenario.node[46].veinsmobility 	minSpeed 	10.450057258143
scalar LocScenario.node[46].veinsmobility 	maxSpeed 	10.499744161579
scalar LocScenario.node[46].veinsmobility 	totalDistance 	167.91047283738
scalar LocScenario.node[46].veinsmobility 	totalCO2Emission 	27.046935106418
scalar LocScenario.node[48].appl 	generatedWSMs 	0
scalar LocScenario.node[48].appl 	receivedWSMs 	0
scalar LocScenario.node[48].appl 	generatedBSMs 	268
scalar LocScenario.node[48].appl 	receivedBSMs 	2868
scalar LocScenario.node[48].appl 	generatedWSAs 	0
scalar LocScenario.node[48].appl 	receivedWSAs 	0
scalar LocScenario.node[48].appl 	rmseGPS 	8.7888544730961
scalar LocScenario.node[48].appl 	rmseDRCP 	8.7888544730961
scalar LocScenario.node[48].appl 	timeOutage 	-71.069160841918
scalar LocScenario.node[48].nic.phy80211p 	busyTime 	0.022208161134629
scalar LocScenario.node[48].nic.mac1609_4 	ReceivedUnicastPackets 	0
scalar LocScenario.node[48].nic.mac1609_4 	ReceivedBroadcasts 	2868
scalar LocScenario.node[48].nic.mac1609_4 	SentPackets 	268
scalar LocScenario.node[48].nic.mac1609_4 	SNIRLostPackets 	0
scalar LocScenario.node[48].nic.mac1609_4 	RXTXLostPackets 	0
scalar LocScenario.node[48].nic.mac1609_4 	TotalLostPackets 	0
scalar LocScenario.node[48].nic.mac1609_4 	DroppedPacketsInMac 	0
scalar LocScenario.node[48].nic.mac1609_4 	TooLittleTime 	0
scalar LocScenario.node[48].nic.mac1609_4 	TimesIntoBackoff 	268
scalar LocScenario.node[48].nic.mac1609_4 	SlotsBackoff 	414
scalar LocScenario.node[48].nic.mac1609_4 	NumInternalContention 	0
scalar LocScenario.node[48].nic.mac1609_4 	totalBusyTime 	0.326412
scalar LocScenario.node[48].veinsmobility 	startTime 	57.7
scalar LocScenario.node[48].veinsmobility 	totalTime 	13.4
scalar LocScenario.node[48].veinsmobility 	stopTime 	71.130738285436
scalar LocScenario.node[48].veinsmobility 	minSpeed 	10.450694210012
scalar LocScenario.node[48].veinsmobility 	maxSpeed 	10.499998998502
scalar LocScenario.node[48].veinsmobility 	totalDistance 	142.81428198283
scalar LocScenario.node[48].veinsmobility 	totalCO2Emission 	22.907080316714
scalar LocScenario.node[50].appl 	generatedWSMs 	0
scalar LocScenario.node[50].appl 	receivedWSMs 	0
scalar LocScenario.node[50].appl 	generatedBSMs 	220
scalar LocScenario.node[50].appl 	receivedBSMs 	2225
scalar LocScenario.node[50].appl 	generatedWSAs 	0
scalar LocScenario.node[50].appl 	receivedWSAs 	0
scalar LocScenario.node[50].appl 	rmseGPS 	8.6953004642331
scalar LocScenario.node[50].appl 	rmseDRCP 	8.6953004642331
scalar LocScenario.node[50].appl 	timeOutage 	-71.092224290641
scalar LocScenario.node[50].nic.phy80211p 	busyTime 	0.020977743647995
scalar LocScenario.node[50].nic.mac1609_4 	ReceivedUnicastPackets 	0
scalar LocScenario.node[50].nic.mac1609_4 	ReceivedBroadcasts 	2225
scalar LocScenario.node[50].nic.mac1609_4 	SentPackets 	220
scalar LocScenario.node[50].nic.mac1609_4 	SNIRLostPackets 	0
scalar LocScenario.node[50].nic.mac1609_4 	RXTXLostPackets 	0
scalar LocScenario.node[50].nic.mac1609_4 	TotalLostPackets 	0
scalar LocScenario.node[50].nic.mac1609_4 	DroppedPacketsInMac 	0
scalar LocScenario.node[50].nic.mac1609_4 	TooLittleTime 	0
scalar LocScenario.node[50].nic.mac1609_4 	TimesIntoBackoff 	220
scalar LocScenario.node[50].nic.mac1609_4 	SlotsBackoff 	324
scalar LocScenario.node[50].nic.mac1609_4 	NumInternalContention 	0
scalar LocScenario.node[50].nic.mac1609_4 	totalBusyTime 	0.2545
scalar LocScenario.node[50].veinsmobility 	startTime 	60.1
scalar LocScenario.node[50].veinsmobility 	totalTime 	11
scalar LocScenario.node[50].veinsmobility 	stopTime 	71.130738285436
scalar LocScenario.node[50].veinsmobility 	minSpeed 	10.450770337135
scalar LocScenario.node[50].veinsmobility 	maxSpeed 	10.499690114625
scalar LocScenario.node[50].veinsmobility 	totalDistance 	117.62305103895
scalar LocScenario.node[50].veinsmobility 	totalCO2Emission 	18.869533878148
scalar LocScenario.node[52].appl 	generatedWSMs 	0
scalar LocScenario.node[52].appl 	receivedWSMs 	0
scalar LocScenario.node[52].appl 	generatedBSMs 	173
scalar LocScenario.node[52].appl 	receivedBSMs 	1625
scalar LocScenario.node[52].appl 	generatedWSAs 	0
scalar LocScenario.node[52].appl 	receivedWSAs 	0
scalar LocScenario.node[52].appl 	rmseGPS 	8.3853006048304
scalar LocScenario.node[52].appl 	rmseDRCP 	8.3853006048304
scalar LocScenario.node[52].appl 	timeOutage 	-71.104780024732
scalar LocScenario.node[52].nic.phy80211p 	busyTime 	0.019581175376987
scalar LocScenario.node[52].nic.mac1609_4 	ReceivedUnicastPackets 	0
scalar LocScenario.node[52].nic.mac1609_4 	ReceivedBroadcasts 	1625
scalar LocScenario.node[52].nic.mac1609_4 	SentPackets 	173
scalar LocScenario.node[52].nic.mac1609_4 	SNIRLostPackets 	0
scalar LocScenario.node[52].nic.mac1609_4 	RXTXLostPackets 	0
scalar LocScenario.node[52].nic.mac1609_4 	TotalLostPackets 	0
scalar LocScenario.node[52].nic.mac1609_4 	DroppedPacketsInMac 	0
scalar LocScenario.node[52].nic.mac1609_4 	TooLittleTime 	0
scalar LocScenario.node[52].nic.mac1609_4 	TimesIntoBackoff 	173
scalar LocScenario.node[52].nic.mac1609_4 	SlotsBackoff 	263
scalar LocScenario.node[52].nic.mac1609_4 	NumInternalContention 	0
scalar LocScenario.node[52].nic.mac1609_4 	totalBusyTime 	0.187165
scalar LocScenario.node[52].veinsmobility 	startTime 	62.5
scalar LocScenario.node[52].veinsmobility 	totalTime 	8.6
scalar LocScenario.node[52].veinsmobility 	stopTime 	71.130738285436
scalar LocScenario.node[52].veinsmobility 	minSpeed 	10.45042458328
scalar LocScenario.node[52].veinsmobility 	maxSpeed 	10.499935147271
scalar LocScenario.node[52].veinsmobility 	totalDistance 	92.523906466614
scalar LocScenario.node[52].veinsmobility 	totalCO2Emission 	14.496484622033
scalar LocScenario.node[54].appl 	generatedWSMs 	0
scalar LocScenario.node[54].appl 	receivedWSMs 	0
scalar LocScenario.node[54].appl 	generatedBSMs 	124
scalar LocScenario.node[54].appl 	receivedBSMs 	1107
scalar LocScenario.node[54].appl 	generatedWSAs 	0
scalar LocScenario.node[54].appl 	receivedWSAs 	0
scalar LocScenario.node[54].appl 	rmseGPS 	8.8997490436218
scalar LocScenario.node[54].appl 	rmseDRCP 	8.8997490436218
scalar LocScenario.node[54].appl 	timeOutage 	-71.036725831428
scalar LocScenario.node[54].nic.phy80211p 	busyTime 	0.018477425102112
scalar LocScenario.node[54].nic.mac1609_4 	ReceivedUnicastPackets 	0
scalar LocScenario.node[54].nic.mac1609_4 	ReceivedBroadcasts 	1107
scalar LocScenario.node[54].nic.mac1609_4 	SentPackets 	124
scalar LocScenario.node[54].nic.mac1609_4 	SNIRLostPackets 	0
scalar LocScenario.node[54].nic.mac1609_4 	RXTXLostPackets 	0
scalar LocScenario.node[54].nic.mac1609_4 	TotalLostPackets 	0
scalar LocScenario.node[54].nic.mac1609_4 	DroppedPacketsInMac 	0
scalar LocScenario.node[54].nic.mac1609_4 	TooLittleTime 	0
scalar LocScenario.node[54].nic.mac1609_4 	TimesIntoBackoff 	124
scalar LocScenario.node[54].nic.mac1609_4 	SlotsBackoff 	180
scalar LocScenario.node[54].nic.mac1609_4 	NumInternalContention 	0
scalar LocScenario.node[54].nic.mac1609_4 	totalBusyTime 	0.128148
scalar LocScenario.node[54].veinsmobility 	startTime 	64.9
scalar LocScenario.node[54].veinsmobility 	totalTime 	6.2
scalar LocScenario.node[54].veinsmobility 	stopTime 	71.130738285436
scalar LocScenario.node[54].veinsmobility 	minSpeed 	10.451855096477
scalar LocScenario.node[54].veinsmobility 	maxSpeed 	10.49914805725
scalar LocScenario.node[54].veinsmobility 	totalDistance 	64.950900292565
scalar LocScenario.node[54].veinsmobility 	totalCO2Emission 	10.55931952369
scalar LocScenario.node[56].appl 	generatedWSMs 	0
scalar LocScenario.node[56].appl 	receivedWSMs 	0
scalar LocScenario.node[56].appl 	generatedBSMs 	76
scalar LocScenario.node[56].appl 	receivedBSMs 	647
scalar LocScenario.node[56].appl 	generatedWSAs 	0
scalar LocScenario.node[56].appl 	receivedWSAs 	0
scalar LocScenario.node[56].appl 	rmseGPS 	9.7477426191897
scalar LocScenario.node[56].appl 	rmseDRCP 	9.7477426191897
scalar LocScenario.node[56].appl 	timeOutage 	-71.041801307001
scalar LocScenario.node[56].nic.phy80211p 	busyTime 	0.01756528245634
scalar LocScenario.node[56].nic.mac1609_4 	ReceivedUnicastPackets 	0
scalar LocScenario.node[56].nic.mac1609_4 	ReceivedBroadcasts 	647
scalar LocScenario.node[56].nic.mac1609_4 	SentPackets 	76
scalar LocScenario.node[56].nic.mac1609_4 	SNIRLostPackets 	0
scalar LocScenario.node[56].nic.mac1609_4 	RXTXLostPackets 	0
scalar LocScenario.node[56].nic.mac1609_4 	TotalLostPackets 	0
scalar LocScenario.node[56].nic.mac1609_4 	DroppedPacketsInMac 	0
scalar LocScenario.node[56].nic.mac1609_4 	TooLittleTime 	0
scalar LocScenario.node[56].nic.mac1609_4 	TimesIntoBackoff 	76
scalar LocScenario.node[56].nic.mac1609_4 	SlotsBackoff 	107
scalar LocScenario.node[56].nic.mac1609_4 	NumInternalContention 	0
scalar LocScenario.node[56].nic.mac1609_4 	totalBusyTime 	0.075268
scalar LocScenario.node[56].veinsmobility 	startTime 	67.3
scalar LocScenario.node[56].veinsmobility 	totalTime 	3.8
scalar LocScenario.node[56].veinsmobility 	stopTime 	71.130738285436
scalar LocScenario.node[56].veinsmobility 	minSpeed 	10.453506816993
scalar LocScenario.node[56].veinsmobility 	maxSpeed 	10.499280258163
scalar LocScenario.node[56].veinsmobility 	totalDistance 	39.634925806853
scalar LocScenario.node[56].veinsmobility 	totalCO2Emission 	6.4378237505247
scalar LocScenario.node[58].appl 	generatedWSMs 	0
scalar LocScenario.node[58].appl 	receivedWSMs 	0
scalar LocScenario.node[58].appl 	generatedBSMs 	29
scalar LocScenario.node[58].appl 	receivedBSMs 	234
scalar LocScenario.node[58].appl 	generatedWSAs 	0
scalar LocScenario.node[58].appl 	receivedWSAs 	0
scalar LocScenario.node[58].appl 	rmseGPS 	7.6095514916815
scalar LocScenario.node[58].appl 	rmseDRCP 	7.6095514916815
scalar LocScenario.node[58].appl 	timeOutage 	-71.113036707789
scalar LocScenario.node[58].nic.phy80211p 	busyTime 	0.017009400145173
scalar LocScenario.node[58].nic.mac1609_4 	ReceivedUnicastPackets 	0
scalar LocScenario.node[58].nic.mac1609_4 	ReceivedBroadcasts 	234
scalar LocScenario.node[58].nic.mac1609_4 	SentPackets 	29
scalar LocScenario.node[58].nic.mac1609_4 	SNIRLostPackets 	0
scalar LocScenario.node[58].nic.mac1609_4 	RXTXLostPackets 	0
scalar LocScenario.node[58].nic.mac1609_4 	TotalLostPackets 	0
scalar LocScenario.node[58].nic.mac1609_4 	DroppedPacketsInMac 	0
scalar LocScenario.node[58].nic.mac1609_4 	TooLittleTime 	0
scalar LocScenario.node[58].nic.mac1609_4 	TimesIntoBackoff 	29
scalar LocScenario.node[58].nic.mac1609_4 	SlotsBackoff 	35
scalar LocScenario.node[58].nic.mac1609_4 	NumInternalContention 	0
scalar LocScenario.node[58].nic.mac1609_4 	totalBusyTime 	0.027381
scalar LocScenario.node[58].veinsmobility 	startTime 	69.7
scalar LocScenario.node[58].veinsmobility 	totalTime 	1.4
scalar LocScenario.node[58].veinsmobility 	stopTime 	71.130738285436
scalar LocScenario.node[58].veinsmobility 	minSpeed 	10.452894313843
scalar LocScenario.node[58].veinsmobility 	maxSpeed 	10.498172980582
scalar LocScenario.node[58].veinsmobility 	totalDistance 	14.668699918113
scalar LocScenario.node[58].veinsmobility 	totalCO2Emission 	2.2309618289539
scalar LocScenario.node[6].appl 	generatedWSMs 	0
scalar LocScenario.node[6].appl 	receivedWSMs 	0
scalar LocScenario.node[6].appl 	generatedBSMs 	1275
scalar LocScenario.node[6].appl 	receivedBSMs 	12941
scalar LocScenario.node[6].appl 	generatedWSAs 	0
scalar LocScenario.node[6].appl 	receivedWSAs 	0
scalar LocScenario.node[6].appl 	rmseGPS 	46.35582063465
scalar LocScenario.node[6].appl 	rmseDRCP 	9.0314853555083
scalar LocScenario.node[6].appl 	timeOutage 	21.6
scalar LocScenario.node[6].nic.phy80211p 	busyTime 	0.021084888505941
scalar LocScenario.node[6].nic.mac1609_4 	ReceivedUnicastPackets 	0
scalar LocScenario.node[6].nic.mac1609_4 	ReceivedBroadcasts 	12941
scalar LocScenario.node[6].nic.mac1609_4 	SentPackets 	1275
scalar LocScenario.node[6].nic.mac1609_4 	SNIRLostPackets 	0
scalar LocScenario.node[6].nic.mac1609_4 	RXTXLostPackets 	0
scalar LocScenario.node[6].nic.mac1609_4 	TotalLostPackets 	0
scalar LocScenario.node[6].nic.mac1609_4 	DroppedPacketsInMac 	0
scalar LocScenario.node[6].nic.mac1609_4 	TooLittleTime 	0
scalar LocScenario.node[6].nic.mac1609_4 	TimesIntoBackoff 	1275
scalar LocScenario.node[6].nic.mac1609_4 	SlotsBackoff 	1832
scalar LocScenario.node[6].nic.mac1609_4 	NumInternalContention 	0
scalar LocScenario.node[6].nic.mac1609_4 	totalBusyTime 	1.479739
scalar LocScenario.node[6].veinsmobility 	startTime 	7.3
scalar LocScenario.node[6].veinsmobility 	totalTime 	63.8
scalar LocScenario.node[6].veinsmobility 	stopTime 	71.130738285436
scalar LocScenario.node[6].veinsmobility 	minSpeed 	10.450030720793
scalar LocScenario.node[6].veinsmobility 	maxSpeed 	10.499893730227
scalar LocScenario.node[6].veinsmobility 	totalDistance 	667.66650176123
scalar LocScenario.node[6].veinsmobility 	totalCO2Emission 	109.97441502846
scalar LocScenario.node[8].appl 	generatedWSMs 	0
scalar LocScenario.node[8].appl 	receivedWSMs 	0
scalar LocScenario.node[8].appl 	generatedBSMs 	1228
scalar LocScenario.node[8].appl 	receivedBSMs 	13584
scalar LocScenario.node[8].appl 	generatedWSAs 	0
scalar LocScenario.node[8].appl 	receivedWSAs 	0
scalar LocScenario.node[8].appl 	rmseGPS 	133.89893880553
scalar LocScenario.node[8].appl 	rmseDRCP 	5.7576696271572
scalar LocScenario.node[8].appl 	timeOutage 	38.7
scalar LocScenario.node[8].nic.phy80211p 	busyTime 	0.022997216693638
scalar LocScenario.node[8].nic.mac1609_4 	ReceivedUnicastPackets 	0
scalar LocScenario.node[8].nic.mac1609_4 	ReceivedBroadcasts 	13584
scalar LocScenario.node[8].nic.mac1609_4 	SentPackets 	1228
scalar LocScenario.node[8].nic.mac1609_4 	SNIRLostPackets 	0
scalar LocScenario.node[8].nic.mac1609_4 	RXTXLostPackets 	0
scalar LocScenario.node[8].nic.mac1609_4 	TotalLostPackets 	0
scalar LocScenario.node[8].nic.mac1609_4 	DroppedPacketsInMac 	0
scalar LocScenario.node[8].nic.mac1609_4 	TooLittleTime 	0
scalar LocScenario.node[8].nic.mac1609_4 	TimesIntoBackoff 	1228
scalar LocScenario.node[8].nic.mac1609_4 	SlotsBackoff 	1821
scalar LocScenario.node[8].nic.mac1609_4 	NumInternalContention 	0
scalar LocScenario.node[8].nic.mac1609_4 	totalBusyTime 	1.541676
scalar LocScenario.node[8].veinsmobility 	startTime 	9.7
scalar LocScenario.node[8].veinsmobility 	totalTime 	61.4
scalar LocScenario.node[8].veinsmobility 	stopTime 	71.130738285436
scalar LocScenario.node[8].veinsmobility 	minSpeed 	10.450001799117
scalar LocScenario.node[8].veinsmobility 	maxSpeed 	10.499971519224
scalar LocScenario.node[8].veinsmobility 	totalDistance 	645.96725124836
scalar LocScenario.node[8].veinsmobility 	totalCO2Emission 	105.9335533936
scalar LocScenario.node[10].appl 	generatedWSMs 	0
scalar LocScenario.node[10].appl 	receivedWSMs 	0
scalar LocScenario.node[10].appl 	generatedBSMs 	1180
scalar LocScenario.node[10].appl 	receivedBSMs 	14179
scalar LocScenario.node[10].appl 	generatedWSAs 	0
scalar LocScenario.node[10].appl 	receivedWSAs 	0
scalar LocScenario.node[10].appl 	rmseGPS 	49.355402602064
scalar LocScenario.node[10].appl 	rmseDRCP 	8.0812432384369
scalar LocScenario.node[10].appl 	timeOutage 	22.5
scalar LocScenario.node[10].nic.phy80211p 	busyTime 	0.024980476999459
scalar LocScenario.node[10].nic.mac1609_4 	ReceivedUnicastPackets 	0
scalar LocScenario.node[10].nic.mac1609_4 	ReceivedBroadcasts 	14179
scalar LocScenario.node[10].nic.mac1609_4 	SentPackets 	1180
scalar LocScenario.node[10].nic.mac1609_4 	SNIRLostPackets 	0
scalar LocScenario.node[10].nic.mac1609_4 	RXTXLostPackets 	0
scalar LocScenario.node[10].nic.mac1609_4 	TotalLostPackets 	0
scalar LocScenario.node[10].nic.mac1609_4 	DroppedPacketsInMac 	0
scalar LocScenario.node[10].nic.mac1609_4 	TooLittleTime 	0
scalar LocScenario.node[10].nic.mac1609_4 	TimesIntoBackoff 	1180
scalar LocScenario.node[10].nic.mac1609_4 	SlotsBackoff 	1703
scalar LocScenario.node[10].nic.mac1609_4 	NumInternalContention 	0
scalar LocScenario.node[10].nic.mac1609_4 	totalBusyTime 	1.598516
scalar LocScenario.node[10].veinsmobility 	startTime 	12.1
scalar LocScenario.node[10].veinsmobility 	totalTime 	59
scalar LocScenario.node[10].veinsmobility 	stopTime 	71.130738285436
scalar LocScenario.node[10].veinsmobility 	minSpeed 	10.450141019491
scalar LocScenario.node[10].veinsmobility 	maxSpeed 	10.499975451687
scalar LocScenario.node[10].veinsmobility 	totalDistance 	620.75023502242
scalar LocScenario.node[10].veinsmobility 	totalCO2Emission 	101.5638994162
scalar LocScenario.node[12].appl 	generatedWSMs 	0
scalar LocScenario.node[12].appl 	receivedWSMs 	0
scalar LocScenario.node[12].appl 	generatedBSMs 	1132
scalar LocScenario.node[12].appl 	receivedBSMs 	14678
scalar LocScenario.node[12].appl 	generatedWSAs 	0
scalar LocScenario.node[12].appl 	receivedWSAs 	0
scalar LocScenario.node[12].appl 	rmseGPS 	36.878238343675
scalar LocScenario.node[12].appl 	rmseDRCP 	8.6312068753472
scalar LocScenario.node[12].appl 	timeOutage 	17.6
scalar LocScenario.node[12].nic.phy80211p 	busyTime 	0.026955537685318
scalar LocScenario.node[12].nic.mac1609_4 	ReceivedUnicastPackets 	0
scalar LocScenario.node[12].nic.mac1609_4 	ReceivedBroadcasts 	14678
scalar LocScenario.node[12].nic.mac1609_4 	SentPackets 	1132
scalar LocScenario.node[12].nic.mac1609_4 	SNIRLostPackets 	0
scalar LocScenario.node[12].nic.mac1609_4 	RXTXLostPackets 	0
scalar LocScenario.node[12].nic.mac1609_4 	TotalLostPackets 	0
scalar LocScenario.node[12].nic.mac1609_4 	DroppedPacketsInMac 	0
scalar LocScenario.node[12].nic.mac1609_4 	TooLittleTime 	0
scalar LocScenario.node[12].nic.mac1609_4 	TimesIntoBackoff 	1132
scalar LocScenario.node[12].nic.mac1609_4 	SlotsBackoff 	1650
scalar LocScenario.node[12].nic.mac1609_4 	NumInternalContention 	0
scalar LocScenario.node[12].nic.mac1609_4 	totalBusyTime 	1.645372
scalar LocScenario.node[12].veinsmobility 	startTime 	14.5
scalar LocScenario.node[12].veinsmobility 	totalTime 	56.6
scalar LocScenario.node[12].veinsmobility 	stopTime 	71.130738285436
scalar LocScenario.node[12].veinsmobility 	minSpeed 	10.450168547989
scalar LocScenario.node[12].veinsmobility 	maxSpeed 	10.499972701457
scalar LocScenario.node[12].veinsmobility 	totalDistance 	597.93540718346
scalar LocScenario.node[12].veinsmobility 	totalCO2Emission 	97.514852836727
scalar LocScenario.node[14].appl 	generatedWSMs 	0
scalar LocScenario.node[14].appl 	receivedWSMs 	0
scalar LocScenario.node[14].appl 	generatedBSMs 	1084
scalar LocScenario.node[14].appl 	receivedBSMs 	15017
scalar LocScenario.node[14].appl 	generatedWSAs 	0
scalar LocScenario.node[14].appl 	receivedWSAs 	0
scalar LocScenario.node[14].appl 	rmseGPS 	74.319886725315
scalar LocScenario.node[14].appl 	rmseDRCP 	9.0345491221925
scalar LocScenario.node[14].appl 	timeOutage 	26.7
scalar LocScenario.node[14].nic.phy80211p 	busyTime 	0.028798575298392
scalar LocScenario.node[14].nic.mac1609_4 	ReceivedUnicastPackets 	0
scalar LocScenario.node[14].nic.mac1609_4 	ReceivedBroadcasts 	15017
scalar LocScenario.node[14].nic.mac1609_4 	SentPackets 	1084
scalar LocScenario.node[14].nic.mac1609_4 	SNIRLostPackets 	0
scalar LocScenario.node[14].nic.mac1609_4 	RXTXLostPackets 	0
scalar LocScenario.node[14].nic.mac1609_4 	TotalLostPackets 	0
scalar LocScenario.node[14].nic.mac1609_4 	DroppedPacketsInMac 	0
scalar LocScenario.node[14].nic.mac1609_4 	TooLittleTime 	0
scalar LocScenario.node[14].nic.mac1609_4 	TimesIntoBackoff 	1084
scalar LocScenario.node[14].nic.mac1609_4 	SlotsBackoff 	1653
scalar LocScenario.node[14].nic.mac1609_4 	NumInternalContention 	0
scalar LocScenario.node[14].nic.mac1609_4 	totalBusyTime 	1.675588
scalar LocScenario.node[14].veinsmobility 	startTime 	16.9
scalar LocScenario.node[14].veinsmobility 	totalTime 	54.2
scalar LocScenario.node[14].veinsmobility 	stopTime 	71.130738285436
scalar LocScenario.node[14].veinsmobility 	minSpeed 	10.450340175815
scalar LocScenario.node[14].veinsmobility 	maxSpeed 	10.499957453134
scalar LocScenario.node[14].veinsmobility 	totalDistance 	572.6092254369
scalar LocScenario.node[14].veinsmobility 	totalCO2Emission 	93.403595713052
scalar LocScenario.node[16].appl 	generatedWSMs 	0
scalar LocScenario.node[16].appl 	receivedWSMs 	0
scalar LocScenario.node[16].appl 	generatedBSMs 	1035
scalar LocScenario.node[16].appl 	receivedBSMs 	15314
scalar LocScenario.node[16].appl 	generatedWSAs 	0
scalar LocScenario.node[16].appl 	receivedWSAs 	0
scalar LocScenario.node[16].appl 	rmseGPS 	84.295454295656
scalar LocScenario.node[16].appl 	rmseDRCP 	7.1418124006616
scalar LocScenario.node[16].appl 	timeOutage 	28
scalar LocScenario.node[16].nic.phy80211p 	busyTime 	0.030728020720632
scalar LocScenario.node[16].nic.mac1609_4 	ReceivedUnicastPackets 	0
scalar LocScenario.node[16].nic.mac1609_4 	ReceivedBroadcasts 	15314
scalar LocScenario.node[16].nic.mac1609_4 	SentPackets 	1035
scalar LocScenario.node[16].nic.mac1609_4 	SNIRLostPackets 	0
scalar LocScenario.node[16].nic.mac1609_4 	RXTXLostPackets 	0
scalar LocScenario.node[16].nic.mac1609_4 	TotalLostPackets 	0
scalar LocScenario.node[16].nic.mac1609_4 	DroppedPacketsInMac 	0
scalar LocScenario.node[16].nic.mac1609_4 	TooLittleTime 	0
scalar LocScenario.node[16].nic.mac1609_4 	TimesIntoBackoff 	1035
scalar LocScenario.node[16].nic.mac1609_4 	SlotsBackoff 	1535
scalar LocScenario.node[16].nic.mac1609_4 	NumInternalContention 	0
scalar LocScenario.node[16].nic.mac1609_4 	totalBusyTime 	1.701331
scalar LocScenario.node[16].veinsmobility 	startTime 	19.3
scalar LocScenario.node[16].veinsmobility 	totalTime 	51.8
scalar LocScenario.node[16].veinsmobility 	stopTime 	71.130738285436
scalar LocScenario.node[16].veinsmobility 	minSpeed 	10.450128193724
scalar LocScenario.node[16].veinsmobility 	maxSpeed 	10.499996315152
scalar LocScenario.node[16].veinsmobility 	totalDistance 	545.13267999063
scalar LocScenario.node[16].veinsmobility 	totalCO2Emission 	89.362244946492
scalar LocScenario.node[18].appl 	generatedWSMs 	0
scalar LocScenario.node[18].appl 	receivedWSMs 	0
scalar LocScenario.node[18].appl 	generatedBSMs 	989
scalar LocScenario.node[18].appl 	receivedBSMs 	15061
scalar LocScenario.node[18].appl 	generatedWSAs 	0
scalar LocScenario.node[18].appl 	receivedWSAs 	0
scalar LocScenario.node[18].appl 	rmseGPS 	48.077186074595
scalar LocScenario.node[18].appl 	rmseDRCP 	6.0119005981413
scalar LocScenario.node[18].appl 	timeOutage 	20
scalar LocScenario.node[18].nic.phy80211p 	busyTime 	0.031687651334595
scalar LocScenario.node[18].nic.mac1609_4 	ReceivedUnicastPackets 	0
scalar LocScenario.node[18].nic.mac1609_4 	ReceivedBroadcasts 	15061
scalar LocScenario.node[18].nic.mac1609_4 	SentPackets 	989
scalar LocScenario.node[18].nic.mac1609_4 	SNIRLostPackets 	0
scalar LocScenario.node[18].nic.mac1609_4 	RXTXLostPackets 	0
scalar LocScenario.node[18].nic.mac1609_4 	TotalLostPackets 	0
scalar LocScenario.node[18].nic.mac1609_4 	DroppedPacketsInMac 	0
scalar LocScenario.node[18].nic.mac1609_4 	TooLittleTime 	0
scalar LocScenario.node[18].nic.mac1609_4 	TimesIntoBackoff 	989
scalar LocScenario.node[18].nic.mac1609_4 	SlotsBackoff 	1486
scalar LocScenario.node[18].nic.mac1609_4 	NumInternalContention 	0
scalar LocScenario.node[18].nic.mac1609_4 	totalBusyTime 	1.670189
scalar LocScenario.node[18].veinsmobility 	startTime 	21.7
scalar LocScenario.node[18].veinsmobility 	totalTime 	49.4
scalar LocScenario.node[18].veinsmobility 	stopTime 	71.130738285436
scalar LocScenario.node[18].veinsmobility 	minSpeed 	10.450083497656
scalar LocScenario.node[18].veinsmobility 	maxSpeed 	10.499829085486
scalar LocScenario.node[18].veinsmobility 	totalDistance 	519.91846000753
scalar LocScenario.node[18].veinsmobility 	totalCO2Emission 	84.891044316575
scalar LocScenario.node[1].appl 	generatedWSMs 	0
scalar LocScenario.node[1].appl 	receivedWSMs 	0
scalar LocScenario.node[1].appl 	generatedBSMs 	1397
scalar LocScenario.node[1].appl 	receivedBSMs 	9914
scalar LocScenario.node[1].appl 	generatedWSAs 	0
scalar LocScenario.node[1].appl 	receivedWSAs 	0
scalar LocScenario.node[1].appl 	rmseGPS 	103.0804841157
scalar LocScenario.node[1].appl 	rmseDRCP 	11.141063638926
scalar LocScenario.node[1].appl 	timeOutage 	35.2
scalar LocScenario.node[1].nic.phy80211p 	busyTime 	0.014517095343375
scalar LocScenario.node[1].nic.mac1609_4 	ReceivedUnicastPackets 	0
scalar LocScenario.node[1].nic.mac1609_4 	ReceivedBroadcasts 	9914
scalar LocScenario.node[1].nic.mac1609_4 	SentPackets 	1397
scalar LocScenario.node[1].nic.mac1609_4 	SNIRLostPackets 	0
scalar LocScenario.node[1].nic.mac1609_4 	RXTXLostPackets 	0
scalar LocScenario.node[1].nic.mac1609_4 	TotalLostPackets 	0
scalar LocScenario.node[1].nic.mac1609_4 	DroppedPacketsInMac 	0
scalar LocScenario.node[1].nic.mac1609_4 	TooLittleTime 	0
scalar LocScenario.node[1].nic.mac1609_4 	TimesIntoBackoff 	1397
scalar LocScenario.node[1].nic.mac1609_4 	SlotsBackoff 	2109
scalar LocScenario.node[1].nic.mac1609_4 	NumInternalContention 	0
scalar LocScenario.node[1].nic.mac1609_4 	totalBusyTime 	1.177741
scalar LocScenario.node[1].veinsmobility 	startTime 	0.1
scalar LocScenario.node[1].veinsmobility 	totalTime 	71
scalar LocScenario.node[1].veinsmobility 	stopTime 	71.130738285436
scalar LocScenario.node[1].veinsmobility 	minSpeed 	10.450003442704
scalar LocScenario.node[1].veinsmobility 	maxSpeed 	10.499954835791
scalar LocScenario.node[1].veinsmobility 	totalDistance 	747.08091219796
scalar LocScenario.node[1].veinsmobility 	totalCO2Emission 	122.36040114089
scalar LocScenario.node[3].appl 	generatedWSMs 	0
scalar LocScenario.node[3].appl 	receivedWSMs 	0
scalar LocScenario.node[3].appl 	generatedBSMs 	1373
scalar LocScenario.node[3].appl 	receivedBSMs 	10850
scalar LocScenario.node[3].appl 	generatedWSAs 	0
scalar LocScenario.node[3].appl 	receivedWSAs 	0
scalar LocScenario.node[3].appl 	rmseGPS 	12.26301493706
scalar LocScenario.node[3].appl 	rmseDRCP 	9.9660970301602
scalar LocScenario.node[3].appl 	timeOutage 	6.5
scalar LocScenario.node[3].nic.phy80211p 	busyTime 	0.016443127790737
scalar LocScenario.node[3].nic.mac1609_4 	ReceivedUnicastPackets 	0
scalar LocScenario.node[3].nic.mac1609_4 	ReceivedBroadcasts 	10850
scalar LocScenario.node[3].nic.mac1609_4 	SentPackets 	1373
scalar LocScenario.node[3].nic.mac1609_4 	SNIRLostPackets 	0
scalar LocScenario.node[3].nic.mac1609_4 	RXTXLostPackets 	0
scalar LocScenario.node[3].nic.mac1609_4 	TotalLostPackets 	0
scalar LocScenario.node[3].nic.mac1609_4 	DroppedPacketsInMac 	0
scalar LocScenario.node[3].nic.mac1609_4 	TooLittleTime 	0
scalar LocScenario.node[3].nic.mac1609_4 	TimesIntoBackoff 	1373
scalar LocScenario.node[3].nic.mac1609_4 	SlotsBackoff 	2093
scalar LocScenario.node[3].nic.mac1609_4 	NumInternalContention 	0
scalar LocScenario.node[3].nic.mac1609_4 	totalBusyTime 	1.272565
scalar LocScenario.node[3].veinsmobility 	startTime 	2.5
scalar LocScenario.node[3].veinsmobility 	totalTime 	68.6
scalar LocScenario.node[3].veinsmobility 	stopTime 	71.130738285436
scalar LocScenario.node[3].veinsmobility 	minSpeed 	10.45023502172
scalar LocScenario.node[3].veinsmobility 	maxSpeed 	10.499910899089
scalar LocScenario.node[3].veinsmobility 	totalDistance 	721.99390019199
scalar LocScenario.node[3].veinsmobility 	totalCO2Emission 	118.24101865603
scalar LocScenario.node[21].appl 	generatedWSMs 	0
scalar LocScenario.node[21].appl 	receivedWSMs 	0
scalar LocScenario.node[21].appl 	generatedBSMs 	940
scalar LocScenario.node[21].appl 	receivedBSMs 	12804
scalar LocScenario.node[21].appl 	generatedWSAs 	0
scalar LocScenario.node[21].appl 	receivedWSAs 	0
scalar LocScenario.node[21].appl 	rmseGPS 	9.1401356528445
scalar LocScenario.node[21].appl 	rmseDRCP 	9.1401356528445
scalar LocScenario.node[21].appl 	timeOutage 	-71.060482555209
scalar LocScenario.node[21].nic.phy80211p 	busyTime 	0.029861661781211
scalar LocScenario.node[21].nic.mac1609_4 	ReceivedUnicastPackets 	0
scalar LocScenario.node[21].nic.mac1609_4 	ReceivedBroadcasts 	12804
scalar LocScenario.node[21].nic.mac1609_4 	SentPackets 	940
scalar LocScenario.node[21].nic.mac1609_4 	SNIRLostPackets 	699
scalar LocScenario.node[21].nic.mac1609_4 	RXTXLostPackets 	0
scalar LocScenario.node[21].nic.mac1609_4 	TotalLostPackets 	699
scalar LocScenario.node[21].nic.mac1609_4 	DroppedPacketsInMac 	0
scalar LocScenario.node[21].nic.mac1609_4 	TooLittleTime 	0
scalar LocScenario.node[21].nic.mac1609_4 	TimesIntoBackoff 	940
scalar LocScenario.node[21].nic.mac1609_4 	SlotsBackoff 	1442
scalar LocScenario.node[21].nic.mac1609_4 	NumInternalContention 	0
scalar LocScenario.node[21].nic.mac1609_4 	totalBusyTime 	1.466716
scalar LocScenario.node[21].veinsmobility 	startTime 	24.1
scalar LocScenario.node[21].veinsmobility 	totalTime 	47
scalar LocScenario.node[21].veinsmobility 	stopTime 	71.130738285436
scalar LocScenario.node[21].veinsmobility 	minSpeed 	10.450252560247
scalar LocScenario.node[21].veinsmobility 	maxSpeed 	10.499944190844
scalar LocScenario.node[21].veinsmobility 	totalDistance 	490.9688380267
scalar LocScenario.node[21].veinsmobility 	totalCO2Emission 	80.80203454202
scalar LocScenario.node[23].appl 	generatedWSMs 	0
scalar LocScenario.node[23].appl 	receivedWSMs 	0
scalar LocScenario.node[23].appl 	generatedBSMs 	891
scalar LocScenario.node[23].appl 	receivedBSMs 	12080
scalar LocScenario.node[23].appl 	generatedWSAs 	0
scalar LocScenario.node[23].appl 	receivedWSAs 	0
scalar LocScenario.node[23].appl 	rmseGPS 	9.1859863156918
scalar LocScenario.node[23].appl 	rmseDRCP 	9.1859863156918
scalar LocScenario.node[23].appl 	timeOutage 	-71.093865561578
scalar LocScenario.node[23].nic.phy80211p 	busyTime 	0.029521716436186
scalar LocScenario.node[23].nic.mac1609_4 	ReceivedUnicastPackets 	0
scalar LocScenario.node[23].nic.mac1609_4 	ReceivedBroadcasts 	12080
scalar LocScenario.node[23].nic.mac1609_4 	SentPackets 	891
scalar LocScenario.node[23].nic.mac1609_4 	SNIRLostPackets 	588
scalar LocScenario.node[23].nic.mac1609_4 	RXTXLostPackets 	0
scalar LocScenario.node[23].nic.mac1609_4 	TotalLostPackets 	588
scalar LocScenario.node[23].nic.mac1609_4 	DroppedPacketsInMac 	0
scalar LocScenario.node[23].nic.mac1609_4 	TooLittleTime 	0
scalar LocScenario.node[23].nic.mac1609_4 	TimesIntoBackoff 	891
scalar LocScenario.node[23].nic.mac1609_4 	SlotsBackoff 	1382
scalar LocScenario.node[23].nic.mac1609_4 	NumInternalContention 	0
scalar LocScenario.node[23].nic.mac1609_4 	totalBusyTime 	1.374731
scalar LocScenario.node[23].veinsmobility 	startTime 	26.5
scalar LocScenario.node[23].veinsmobility 	totalTime 	44.6
scalar LocScenario.node[23].veinsmobility 	stopTime 	71.130738285436
scalar LocScenario.node[23].veinsmobility 	minSpeed 	10.450034264626
scalar LocScenario.node[23].veinsmobility 	maxSpeed 	10.499913108384
scalar LocScenario.node[23].veinsmobility 	totalDistance 	468.30405485239
scalar LocScenario.node[23].veinsmobility 	totalCO2Emission 	76.571166788767
scalar LocScenario.node[25].appl 	generatedWSMs 	0
scalar LocScenario.node[25].appl 	receivedWSMs 	0
scalar LocScenario.node[25].appl 	generatedBSMs 	844
scalar LocScenario.node[25].appl 	receivedBSMs 	11534
scalar LocScenario.node[25].appl 	generatedWSAs 	0
scalar LocScenario.node[25].appl 	receivedWSAs 	0
scalar LocScenario.node[25].appl 	rmseGPS 	14.720652584364
scalar LocScenario.node[25].appl 	rmseDRCP 	8.4950146396583
scalar LocScenario.node[25].appl 	timeOutage 	6.3
scalar LocScenario.node[25].nic.phy80211p 	busyTime 	0.029128356499143
scalar LocScenario.node[25].nic.mac1609_4 	ReceivedUnicastPackets 	0
scalar LocScenario.node[25].nic.mac1609_4 	ReceivedBroadcasts 	11534
scalar LocScenario.node[25].nic.mac1609_4 	SentPackets 	844
scalar LocScenario.node[25].nic.mac1609_4 	SNIRLostPackets 	293
scalar LocScenario.node[25].nic.mac1609_4 	RXTXLostPackets 	0
scalar LocScenario.node[25].nic.mac1609_4 	TotalLostPackets 	293
scalar LocScenario.node[25].nic.mac1609_4 	DroppedPacketsInMac 	0
scalar LocScenario.node[25].nic.mac1609_4 	TooLittleTime 	0
scalar LocScenario.node[25].nic.mac1609_4 	TimesIntoBackoff 	844
scalar LocScenario.node[25].nic.mac1609_4 	SlotsBackoff 	1267
scalar LocScenario.node[25].nic.mac1609_4 	NumInternalContention 	0
scalar LocScenario.node[25].nic.mac1609_4 	totalBusyTime 	1.288364
scalar LocScenario.node[25].veinsmobility 	startTime 	28.9
scalar LocScenario.node[25].veinsmobility 	totalTime 	42.2
scalar LocScenario.node[25].veinsmobility 	stopTime 	71.130738285436
scalar LocScenario.node[25].veinsmobility 	minSpeed 	10.450002169271
scalar LocScenario.node[25].veinsmobility 	maxSpeed 	10.49996719819
scalar LocScenario.node[25].veinsmobility 	totalDistance 	443.150422195
scalar LocScenario.node[25].veinsmobility 	totalCO2Emission 	72.881944251898
scalar LocScenario.node[27].appl 	generatedWSMs 	0
scalar LocScenario.node[27].appl 	receivedWSMs 	0
scalar LocScenario.node[27].appl 	generatedBSMs 	796
scalar LocScenario.node[27].appl 	receivedBSMs 	10820
scalar LocScenario.node[27].appl 	generatedWSAs 	0
scalar LocScenario.node[27].appl 	receivedWSAs 	0
scalar LocScenario.node[27].appl 	rmseGPS 	8.8496215950798
scalar LocScenario.node[27].appl 	rmseDRCP 	8.9078387714148
scalar LocScenario.node[27].appl 	timeOutage 	0.9
scalar LocScenario.node[27].nic.phy80211p 	busyTime 	0.028844255704399
scalar LocScenario.node[27].nic.mac1609_4 	ReceivedUnicastPackets 	0
scalar LocScenario.node[27].nic.mac1609_4 	ReceivedBroadcasts 	10820
scalar LocScenario.node[27].nic.mac1609_4 	SentPackets 	796
scalar LocScenario.node[27].nic.mac1609_4 	SNIRLostPackets 	226
scalar LocScenario.node[27].nic.mac1609_4 	RXTXLostPackets 	0
scalar LocScenario.node[27].nic.mac1609_4 	TotalLostPackets 	226
scalar LocScenario.node[27].nic.mac1609_4 	DroppedPacketsInMac 	0
scalar LocScenario.node[27].nic.mac1609_4 	TooLittleTime 	0
scalar LocScenario.node[27].nic.mac1609_4 	TimesIntoBackoff 	796
scalar LocScenario.node[27].nic.mac1609_4 	SlotsBackoff 	1225
scalar LocScenario.node[27].nic.mac1609_4 	NumInternalContention 	0
scalar LocScenario.node[27].nic.mac1609_4 	totalBusyTime 	1.22238
scalar LocScenario.node[27].veinsmobility 	startTime 	31.3
scalar LocScenario.node[27].veinsmobility 	totalTime 	39.8
scalar LocScenario.node[27].veinsmobility 	stopTime 	71.130738285436
scalar LocScenario.node[27].veinsmobility 	minSpeed 	10.450002551789
scalar LocScenario.node[27].veinsmobility 	maxSpeed 	10.499992481235
scalar LocScenario.node[27].veinsmobility 	totalDistance 	418.04385038147
scalar LocScenario.node[27].veinsmobility 	totalCO2Emission 	68.479389268844
scalar LocScenario.node[29].appl 	generatedWSMs 	0
scalar LocScenario.node[29].appl 	receivedWSMs 	0
scalar LocScenario.node[29].appl 	generatedBSMs 	748
scalar LocScenario.node[29].appl 	receivedBSMs 	10159
scalar LocScenario.node[29].appl 	generatedWSAs 	0
scalar LocScenario.node[29].appl 	receivedWSAs 	0
scalar LocScenario.node[29].appl 	rmseGPS 	9.2543217167952
scalar LocScenario.node[29].appl 	rmseDRCP 	9.2543217167952
scalar LocScenario.node[29].appl 	timeOutage 	-71.117784531857
scalar LocScenario.node[29].nic.phy80211p 	busyTime 	0.028601519741238
scalar LocScenario.node[29].nic.mac1609_4 	ReceivedUnicastPackets 	0
scalar LocScenario.node[29].nic.mac1609_4 	ReceivedBroadcasts 	10159
scalar LocScenario.node[29].nic.mac1609_4 	SentPackets 	748
scalar LocScenario.node[29].nic.mac1609_4 	SNIRLostPackets 	135
scalar LocScenario.node[29].nic.mac1609_4 	RXTXLostPackets 	0
scalar LocScenario.node[29].nic.mac1609_4 	TotalLostPackets 	135
scalar LocScenario.node[29].nic.mac1609_4 	DroppedPacketsInMac 	0
scalar LocScenario.node[29].nic.mac1609_4 	TooLittleTime 	0
scalar LocScenario.node[29].nic.mac1609_4 	TimesIntoBackoff 	748
scalar LocScenario.node[29].nic.mac1609_4 	SlotsBackoff 	1103
scalar LocScenario.node[29].nic.mac1609_4 	NumInternalContention 	0
scalar LocScenario.node[29].nic.mac1609_4 	totalBusyTime 	1.149116
scalar LocScenario.node[29].veinsmobility 	startTime 	33.7
scalar LocScenario.node[29].veinsmobility 	totalTime 	37.4
scalar LocScenario.node[29].veinsmobility 	stopTime 	71.130738285436
scalar LocScenario.node[29].veinsmobility 	minSpeed 	10.45064542318
scalar LocScenario.node[29].veinsmobility 	maxSpeed 	10.49985965261
scalar LocScenario.node[29].veinsmobility 	totalDistance 	390.60289683239
scalar LocScenario.node[29].veinsmobility 	totalCO2Emission 	64.209880979753
scalar LocScenario.node[31].appl 	generatedWSMs 	0
scalar LocScenario.node[31].appl 	receivedWSMs 	0
scalar LocScenario.node[31].appl 	generatedBSMs 	700
scalar LocScenario.node[31].appl 	receivedBSMs 	9346
scalar LocScenario.node[31].appl 	generatedWSAs 	0
scalar LocScenario.node[31].appl 	receivedWSAs 	0
scalar LocScenario.node[31].appl 	rmseGPS 	18.085795585543
scalar LocScenario.node[31].appl 	rmseDRCP 	7.5514897375763
scalar LocScenario.node[31].appl 	timeOutage 	8.9
scalar LocScenario.node[31].nic.phy80211p 	busyTime 	0.028230521205175
scalar LocScenario.node[31].nic.mac1609_4 	ReceivedUnicastPackets 	0
scalar LocScenario.node[31].nic.mac1609_4 	ReceivedBroadcasts 	9346
scalar LocScenario.node[31].nic.mac1609_4 	SentPackets 	700
scalar LocScenario.node[31].nic.mac1609_4 	SNIRLostPackets 	163
scalar LocScenario.node[31].nic.mac1609_4 	RXTXLostPackets 	0
scalar LocScenario.node[31].nic.mac1609_4 	TotalLostPackets 	163
scalar LocScenario.node[31].nic.mac1609_4 	DroppedPacketsInMac 	0
scalar LocScenario.node[31].nic.mac1609_4 	TooLittleTime 	0
scalar LocScenario.node[31].nic.mac1609_4 	TimesIntoBackoff 	700
scalar LocScenario.node[31].nic.mac1609_4 	SlotsBackoff 	1021
scalar LocScenario.node[31].nic.mac1609_4 	NumInternalContention 	0
scalar LocScenario.node[31].nic.mac1609_4 	totalBusyTime 	1.06098
scalar LocScenario.node[31].veinsmobility 	startTime 	36.1
scalar LocScenario.node[31].veinsmobility 	totalTime 	35
scalar LocScenario.node[31].veinsmobility 	stopTime 	71.130738285436
scalar LocScenario.node[31].veinsmobility 	minSpeed 	10.450026087707
scalar LocScenario.node[31].veinsmobility 	maxSpeed 	10.499852970953
scalar LocScenario.node[31].veinsmobility 	totalDistance 	365.54881087151
scalar LocScenario.node[31].veinsmobility 	totalCO2Emission 	60.103331493704
scalar LocScenario.node[33].appl 	generatedWSMs 	0
scalar LocScenario.node[33].appl 	receivedWSMs 	0
scalar LocScenario.node[33].appl 	generatedBSMs 	652
scalar LocScenario.node[33].appl 	receivedBSMs 	8289
scalar LocScenario.node[33].appl 	generatedWSAs 	0
scalar LocScenario.node[33].appl 	receivedWSAs 	0
scalar LocScenario.node[33].appl 	rmseGPS 	9.0019406609993
scalar LocScenario.node[33].appl 	rmseDRCP 	9.0019406609993
scalar LocScenario.node[33].appl 	timeOutage 	-71.039041953278
scalar LocScenario.node[33].nic.phy80211p 	busyTime 	0.027632840915598
scalar LocScenario.node[33].nic.mac1609_4 	ReceivedUnicastPackets 	0
scalar LocScenario.node[33].nic.mac1609_4 	ReceivedBroadcasts 	8289
scalar LocScenario.node[33].nic.mac1609_4 	SentPackets 	652
scalar LocScenario.node[33].nic.mac1609_4 	SNIRLostPackets 	381
scalar LocScenario.node[33].nic.mac1609_4 	RXTXLostPackets 	0
scalar LocScenario.node[33].nic.mac1609_4 	TotalLostPackets 	381
scalar LocScenario.node[33].nic.mac1609_4 	DroppedPacketsInMac 	0
scalar LocScenario.node[33].nic.mac1609_4 	TooLittleTime 	0
scalar LocScenario.node[33].nic.mac1609_4 	TimesIntoBackoff 	652
scalar LocScenario.node[33].nic.mac1609_4 	SlotsBackoff 	1025
scalar LocScenario.node[33].nic.mac1609_4 	NumInternalContention 	0
scalar LocScenario.node[33].nic.mac1609_4 	totalBusyTime 	0.958076
scalar LocScenario.node[33].veinsmobility 	startTime 	38.5
scalar LocScenario.node[33].veinsmobility 	totalTime 	32.6
scalar LocScenario.node[33].veinsmobility 	stopTime 	71.130738285436
scalar LocScenario.node[33].veinsmobility 	minSpeed 	10.450336889247
scalar LocScenario.node[33].veinsmobility 	maxSpeed 	10.499901936145
scalar LocScenario.node[33].veinsmobility 	totalDistance 	340.4364485055
scalar LocScenario.node[33].veinsmobility 	totalCO2Emission 	56.248515044247
scalar LocScenario.node[35].appl 	generatedWSMs 	0
scalar LocScenario.node[35].appl 	receivedWSMs 	0
scalar LocScenario.node[35].appl 	generatedBSMs 	604
scalar LocScenario.node[35].appl 	receivedBSMs 	7509
scalar LocScenario.node[35].appl 	generatedWSAs 	0
scalar LocScenario.node[35].appl 	receivedWSAs 	0
scalar LocScenario.node[35].appl 	rmseGPS 	9.1129094911335
scalar LocScenario.node[35].appl 	rmseDRCP 	9.1129094911335
scalar LocScenario.node[35].appl 	timeOutage 	-71.122463070066
scalar LocScenario.node[35].nic.phy80211p 	busyTime 	0.027091630785429
scalar LocScenario.node[35].nic.mac1609_4 	ReceivedUnicastPackets 	0
scalar LocScenario.node[35].nic.mac1609_4 	ReceivedBroadcasts 	7509
scalar LocScenario.node[35].nic.mac1609_4 	SentPackets 	604
scalar LocScenario.node[35].nic.mac1609_4 	SNIRLostPackets 	366
scalar LocScenario.node[35].nic.mac1609_4 	RXTXLostPackets 	0
scalar LocScenario.node[35].nic.mac1609_4 	TotalLostPackets 	366
scalar LocScenario.node[35].nic.mac1609_4 	DroppedPacketsInMac 	0
scalar LocScenario.node[35].nic.mac1609_4 	TooLittleTime 	0
scalar LocScenario.node[35].nic.mac1609_4 	TimesIntoBackoff 	604
scalar LocScenario.node[35].nic.mac1609_4 	SlotsBackoff 	943
scalar LocScenario.node[35].nic.mac1609_4 	NumInternalContention 	0
scalar LocScenario.node[35].nic.mac1609_4 	totalBusyTime 	0.870356
scalar LocScenario.node[35].veinsmobility 	startTime 	40.9
scalar LocScenario.node[35].veinsmobility 	totalTime 	30.2
scalar LocScenario.node[35].veinsmobility 	stopTime 	71.130738285436
scalar LocScenario.node[35].veinsmobility 	minSpeed 	10.450490569079
scalar LocScenario.node[35].veinsmobility 	maxSpeed 	10.499863706646
scalar LocScenario.node[35].veinsmobility 	totalDistance 	315.43437794107
scalar LocScenario.node[35].veinsmobility 	totalCO2Emission 	51.950748101069
scalar LocScenario.node[37].appl 	generatedWSMs 	0
scalar LocScenario.node[37].appl 	receivedWSMs 	0
scalar LocScenario.node[37].appl 	generatedBSMs 	557
scalar LocScenario.node[37].appl 	receivedBSMs 	6958
scalar LocScenario.node[37].appl 	generatedWSAs 	0
scalar LocScenario.node[37].appl 	receivedWSAs 	0
scalar LocScenario.node[37].appl 	rmseGPS 	9.2989666660806
scalar LocScenario.node[37].appl 	rmseDRCP 	9.2989666660806
scalar LocScenario.node[37].appl 	timeOutage 	-71.106222297647
scalar LocScenario.node[37].nic.phy80211p 	busyTime 	0.026628973777091
scalar LocScenario.node[37].nic.mac1609_4 	ReceivedUnicastPackets 	0
scalar LocScenario.node[37].nic.mac1609_4 	ReceivedBroadcasts 	6958
scalar LocScenario.node[37].nic.mac1609_4 	SentPackets 	557
scalar LocScenario.node[37].nic.mac1609_4 	SNIRLostPackets 	168
scalar LocScenario.node[37].nic.mac1609_4 	RXTXLostPackets 	0
scalar LocScenario.node[37].nic.mac1609_4 	TotalLostPackets 	168
scalar LocScenario.node[37].nic.mac1609_4 	DroppedPacketsInMac 	0
scalar LocScenario.node[37].nic.mac1609_4 	TooLittleTime 	0
scalar LocScenario.node[37].nic.mac1609_4 	TimesIntoBackoff 	557
scalar LocScenario.node[37].nic.mac1609_4 	SlotsBackoff 	861
scalar LocScenario.node[37].nic.mac1609_4 	NumInternalContention 	0
scalar LocScenario.node[37].nic.mac1609_4 	totalBusyTime 	0.791061
scalar LocScenario.node[37].veinsmobility 	startTime 	43.3
scalar LocScenario.node[37].veinsmobility 	totalTime 	27.8
scalar LocScenario.node[37].veinsmobility 	stopTime 	71.130738285436
scalar LocScenario.node[37].veinsmobility 	minSpeed 	10.450379130116
scalar LocScenario.node[37].veinsmobility 	maxSpeed 	10.499946114188
scalar LocScenario.node[37].veinsmobility 	totalDistance 	292.07634884493
scalar LocScenario.node[37].veinsmobility 	totalCO2Emission 	47.995121515499
scalar LocScenario.node[39].appl 	generatedWSMs 	0
scalar LocScenario.node[39].appl 	receivedWSMs 	0
scalar LocScenario.node[39].appl 	generatedBSMs 	507
scalar LocScenario.node[39].appl 	receivedBSMs 	6189
scalar LocScenario.node[39].appl 	generatedWSAs 	0
scalar LocScenario.node[39].appl 	receivedWSAs 	0
scalar LocScenario.node[39].appl 	rmseGPS 	18.437814851467
scalar LocScenario.node[39].appl 	rmseDRCP 	7.0380489629044
scalar LocScenario.node[39].appl 	timeOutage 	7.2
scalar LocScenario.node[39].nic.phy80211p 	busyTime 	0.025870424704765
scalar LocScenario.node[39].nic.mac1609_4 	ReceivedUnicastPackets 	0
scalar LocScenario.node[39].nic.mac1609_4 	ReceivedBroadcasts 	6189
scalar LocScenario.node[39].nic.mac1609_4 	SentPackets 	507
scalar LocScenario.node[39].nic.mac1609_4 	SNIRLostPackets 	137
scalar LocScenario.node[39].nic.mac1609_4 	RXTXLostPackets 	0
scalar LocScenario.node[39].nic.mac1609_4 	TotalLostPackets 	137
scalar LocScenario.node[39].nic.mac1609_4 	DroppedPacketsInMac 	0
scalar LocScenario.node[39].nic.mac1609_4 	TooLittleTime 	0
scalar LocScenario.node[39].nic.mac1609_4 	TimesIntoBackoff 	507
scalar LocScenario.node[39].nic.mac1609_4 	SlotsBackoff 	795
scalar LocScenario.node[39].nic.mac1609_4 	NumInternalContention 	0
scalar LocScenario.node[39].nic.mac1609_4 	totalBusyTime 	0.704795
scalar LocScenario.node[39].veinsmobility 	startTime 	45.7
scalar LocScenario.node[39].veinsmobility 	totalTime 	25.4
scalar LocScenario.node[39].veinsmobility 	stopTime 	71.130738285436
scalar LocScenario.node[39].veinsmobility 	minSpeed 	10.45000110236
scalar LocScenario.node[39].veinsmobility 	maxSpeed 	10.499755439442
scalar LocScenario.node[39].veinsmobility 	totalDistance 	266.86210232087
scalar LocScenario.node[39].veinsmobility 	totalCO2Emission 	43.759921627111
scalar LocScenario.node[5].appl 	generatedWSMs 	0
scalar LocScenario.node[5].appl 	receivedWSMs 	0
[...]
scalar LocScenario.node[55].nic.phy80211p 	busyTime 	0.018427350779342
scalar LocScenario.node[55].nic.mac1609_4 	ReceivedUnicastPackets 	0
scalar LocScenario.node[55].nic.mac1609_4 	ReceivedBroadcasts 	1104
scalar LocScenario.node[55].nic.mac1609_4 	SentPackets 	124
scalar LocScenario.node[55].nic.mac1609_4 	SNIRLostPackets 	0
scalar LocScenario.node[55].nic.mac1609_4 	RXTXLostPackets 	0
scalar LocScenario.node[55].nic.mac1609_4 	TotalLostPackets 	0
scalar LocScenario.node[55].nic.mac1609_4 	DroppedPacketsInMac 	0
scalar LocScenario.node[55].nic.mac1609_4 	TooLittleTime 	0
scalar LocScenario.node[55].nic.mac1609_4 	TimesIntoBackoff 	139
scalar LocScenario.node[55].nic.mac1609_4 	SlotsBackoff 	228
scalar LocScenario.node[55].nic.mac1609_4 	NumInternalContention 	0
scalar LocScenario.node[55].nic.mac1609_4 	totalBusyTime 	0.127836
scalar LocScenario.node[55].veinsmobility 	startTime 	64.9
scalar LocScenario.node[55].veinsmobility 	totalTime 	6.2
scalar LocScenario.node[55].veinsmobility 	stopTime 	71.130738285436
scalar LocScenario.node[55].veinsmobility 	minSpeed 	10.450278880377
scalar LocScenario.node[55].veinsmobility 	maxSpeed 	10.499260445754
scalar LocScenario.node[55].veinsmobility 	totalDistance 	64.755043549113
scalar LocScenario.node[55].veinsmobility 	totalCO2Emission 	10.489085268731
scalar LocScenario.node[57].appl 	generatedWSMs 	0
scalar LocScenario.node[57].appl 	receivedWSMs 	0
scalar LocScenario.node[57].appl 	generatedBSMs 	76
scalar LocScenario.node[57].appl 	receivedBSMs 	645
scalar LocScenario.node[57].appl 	generatedWSAs 	0
scalar LocScenario.node[57].appl 	receivedWSAs 	0
scalar LocScenario.node[57].appl 	rmseGPS 	8.0953997579769
scalar LocScenario.node[57].appl 	rmseDRCP 	8.0953997579769
scalar LocScenario.node[57].appl 	timeOutage 	-71.076293290127
scalar LocScenario.node[57].nic.phy80211p 	busyTime 	0.017510984828964
scalar LocScenario.node[57].nic.mac1609_4 	ReceivedUnicastPackets 	0
scalar LocScenario.node[57].nic.mac1609_4 	ReceivedBroadcasts 	645
scalar LocScenario.node[57].nic.mac1609_4 	SentPackets 	76
scalar LocScenario.node[57].nic.mac1609_4 	SNIRLostPackets 	0
scalar LocScenario.node[57].nic.mac1609_4 	RXTXLostPackets 	0
scalar LocScenario.node[57].nic.mac1609_4 	TotalLostPackets 	0
scalar LocScenario.node[57].nic.mac1609_4 	DroppedPacketsInMac 	0
scalar LocScenario.node[57].nic.mac1609_4 	TooLittleTime 	0
scalar LocScenario.node[57].nic.mac1609_4 	TimesIntoBackoff 	76
scalar LocScenario.node[57].nic.mac1609_4 	SlotsBackoff 	120
scalar LocScenario.node[57].nic.mac1609_4 	NumInternalContention 	0
scalar LocScenario.node[57].nic.mac1609_4 	totalBusyTime 	0.07506
scalar LocScenario.node[57].veinsmobility 	startTime 	67.3
scalar LocScenario.node[57].veinsmobility 	totalTime 	3.8
scalar LocScenario.node[57].veinsmobility 	stopTime 	71.130738285436
scalar LocScenario.node[57].veinsmobility 	minSpeed 	10.451459072274
scalar LocScenario.node[57].veinsmobility 	maxSpeed 	10.498056314362
scalar LocScenario.node[57].veinsmobility 	totalDistance 	39.685220533165
scalar LocScenario.node[57].veinsmobility 	totalCO2Emission 	6.4572041103253
scalar LocScenario.node[59].appl 	generatedWSMs 	0
scalar LocScenario.node[59].appl 	receivedWSMs 	0
scalar LocScenario.node[59].appl 	generatedBSMs 	29
scalar LocScenario.node[59].appl 	receivedBSMs 	233
scalar LocScenario.node[59].appl 	generatedWSAs 	0
scalar LocScenario.node[59].appl 	receivedWSAs 	0
scalar LocScenario.node[59].appl 	rmseGPS 	8.1771068084798
scalar LocScenario.node[59].appl 	rmseDRCP 	8.1771068084798
scalar LocScenario.node[59].appl 	timeOutage 	-71.117007894302
scalar LocScenario.node[59].nic.phy80211p 	busyTime 	0.016936710400963
scalar LocScenario.node[59].nic.mac1609_4 	ReceivedUnicastPackets 	0
scalar LocScenario.node[59].nic.mac1609_4 	ReceivedBroadcasts 	233
scalar LocScenario.node[59].nic.mac1609_4 	SentPackets 	29
scalar LocScenario.node[59].nic.mac1609_4 	SNIRLostPackets 	0
scalar LocScenario.node[59].nic.mac1609_4 	RXTXLostPackets 	0
scalar LocScenario.node[59].nic.mac1609_4 	TotalLostPackets 	0
scalar LocScenario.node[59].nic.mac1609_4 	DroppedPacketsInMac 	0
scalar LocScenario.node[59].nic.mac1609_4 	TooLittleTime 	0
scalar LocScenario.node[59].nic.mac1609_4 	TimesIntoBackoff 	29
scalar LocScenario.node[59].nic.mac1609_4 	SlotsBackoff 	47
scalar LocScenario.node[59].nic.mac1609_4 	NumInternalContention 	0
scalar LocScenario.node[59].nic.mac1609_4 	totalBusyTime 	0.027277
scalar LocScenario.node[59].veinsmobility 	startTime 	69.7
scalar LocScenario.node[59].veinsmobility 	totalTime 	1.4
scalar LocScenario.node[59].veinsmobility 	stopTime 	71.130738285436
scalar LocScenario.node[59].veinsmobility 	minSpeed 	10.451280510612
scalar LocScenario.node[59].veinsmobility 	maxSpeed 	10.489911891299
scalar LocScenario.node[59].veinsmobility 	totalDistance 	14.615852022653
scalar LocScenario.node[59].veinsmobility 	totalCO2Emission 	2.322481022005
scalar LocScenario.node[7].appl 	generatedWSMs 	0
scalar LocScenario.node[7].appl 	receivedWSMs 	0
scalar LocScenario.node[7].appl 	generatedBSMs 	1277
scalar LocScenario.node[7].appl 	receivedBSMs 	12504
scalar LocScenario.node[7].appl 	generatedWSAs 	0
scalar LocScenario.node[7].appl 	receivedWSAs 	0
scalar LocScenario.node[7].appl 	rmseGPS 	44.198041805189
scalar LocScenario.node[7].appl 	rmseDRCP 	9.1150983095665
scalar LocScenario.node[7].appl 	timeOutage 	22
scalar LocScenario.node[7].nic.phy80211p 	busyTime 	0.020374509757111
scalar LocScenario.node[7].nic.mac1609_4 	ReceivedUnicastPackets 	0
scalar LocScenario.node[7].nic.mac1609_4 	ReceivedBroadcasts 	12504
scalar LocScenario.node[7].nic.mac1609_4 	SentPackets 	1277
scalar LocScenario.node[7].nic.mac1609_4 	SNIRLostPackets 	0
scalar LocScenario.node[7].nic.mac1609_4 	RXTXLostPackets 	0
scalar LocScenario.node[7].nic.mac1609_4 	TotalLostPackets 	0
scalar LocScenario.node[7].nic.mac1609_4 	DroppedPacketsInMac 	0
scalar LocScenario.node[7].nic.mac1609_4 	TooLittleTime 	0
scalar LocScenario.node[7].nic.mac1609_4 	TimesIntoBackoff 	1277
scalar LocScenario.node[7].nic.mac1609_4 	SlotsBackoff 	1875
scalar LocScenario.node[7].nic.mac1609_4 	NumInternalContention 	0
scalar LocScenario.node[7].nic.mac1609_4 	totalBusyTime 	1.434501
scalar LocScenario.node[7].veinsmobility 	startTime 	7.3
scalar LocScenario.node[7].veinsmobility 	totalTime 	63.8
scalar LocScenario.node[7].veinsmobility 	stopTime 	71.130738285436
scalar LocScenario.node[7].veinsmobility 	minSpeed 	10.450104123866
scalar LocScenario.node[7].veinsmobility 	maxSpeed 	10.499996971502
scalar LocScenario.node[7].veinsmobility 	totalDistance 	666.69394523077
scalar LocScenario.node[7].veinsmobility 	totalCO2Emission 	109.97548277861
scalar LocScenario.node[9].appl 	generatedWSMs 	0
scalar LocScenario.node[9].appl 	receivedWSMs 	0
scalar LocScenario.node[9].appl 	generatedBSMs 	1229
scalar LocScenario.node[9].appl 	receivedBSMs 	13100
scalar LocScenario.node[9].appl 	generatedWSAs 	0
scalar LocScenario.node[9].appl 	receivedWSAs 	0
scalar LocScenario.node[9].appl 	rmseGPS 	46.255784272924
scalar LocScenario.node[9].appl 	rmseDRCP 	8.3835008433106
scalar LocScenario.node[9].appl 	timeOutage 	21.1
scalar LocScenario.node[9].nic.phy80211p 	busyTime 	0.022177822341479
scalar LocScenario.node[9].nic.mac1609_4 	ReceivedUnicastPackets 	0
scalar LocScenario.node[9].nic.mac1609_4 	ReceivedBroadcasts 	13100
scalar LocScenario.node[9].nic.mac1609_4 	SentPackets 	1229
scalar LocScenario.node[9].nic.mac1609_4 	SNIRLostPackets 	0
scalar LocScenario.node[9].nic.mac1609_4 	RXTXLostPackets 	0
scalar LocScenario.node[9].nic.mac1609_4 	TotalLostPackets 	0
scalar LocScenario.node[9].nic.mac1609_4 	DroppedPacketsInMac 	0
scalar LocScenario.node[9].nic.mac1609_4 	TooLittleTime 	0
scalar LocScenario.node[9].nic.mac1609_4 	TimesIntoBackoff 	1228
scalar LocScenario.node[9].nic.mac1609_4 	SlotsBackoff 	1796
scalar LocScenario.node[9].nic.mac1609_4 	NumInternalContention 	0
scalar LocScenario.node[9].nic.mac1609_4 	totalBusyTime 	1.49134
scalar LocScenario.node[9].veinsmobility 	startTime 	9.7
scalar LocScenario.node[9].veinsmobility 	totalTime 	61.4
scalar LocScenario.node[9].veinsmobility 	stopTime 	71.130738285436
scalar LocScenario.node[9].veinsmobility 	minSpeed 	10.450098725781
scalar LocScenario.node[9].veinsmobility 	maxSpeed 	10.499922190141
scalar LocScenario.node[9].veinsmobility 	totalDistance 	646.51450576932
scalar LocScenario.node[9].veinsmobility 	totalCO2Emission 	105.67829865421
scalar LocScenario.node[11].appl 	generatedWSMs 	0
scalar LocScenario.node[11].appl 	receivedWSMs 	0
scalar LocScenario.node[11].appl 	generatedBSMs 	1179
scalar LocScenario.node[11].appl 	receivedBSMs 	13708
scalar LocScenario.node[11].appl 	generatedWSAs 	0
scalar LocScenario.node[11].appl 	receivedWSAs 	0
scalar LocScenario.node[11].appl 	rmseGPS 	106.17239934881
scalar LocScenario.node[11].appl 	rmseDRCP 	7.7227156505776
scalar LocScenario.node[11].appl 	timeOutage 	34.4
scalar LocScenario.node[11].nic.phy80211p 	busyTime 	0.024152433823653
scalar LocScenario.node[11].nic.mac1609_4 	ReceivedUnicastPackets 	0
scalar LocScenario.node[11].nic.mac1609_4 	ReceivedBroadcasts 	13708
scalar LocScenario.node[11].nic.mac1609_4 	SentPackets 	1179
scalar LocScenario.node[11].nic.mac1609_4 	SNIRLostPackets 	0
scalar LocScenario.node[11].nic.mac1609_4 	RXTXLostPackets 	0
scalar LocScenario.node[11].nic.mac1609_4 	TotalLostPackets 	0
scalar LocScenario.node[11].nic.mac1609_4 	DroppedPacketsInMac 	0
scalar LocScenario.node[11].nic.mac1609_4 	TooLittleTime 	0
scalar LocScenario.node[11].nic.mac1609_4 	TimesIntoBackoff 	1179
scalar LocScenario.node[11].nic.mac1609_4 	SlotsBackoff 	1735
scalar LocScenario.node[11].nic.mac1609_4 	NumInternalContention 	0
scalar LocScenario.node[11].nic.mac1609_4 	totalBusyTime 	1.549427
scalar LocScenario.node[11].veinsmobility 	startTime 	12.1
scalar LocScenario.node[11].veinsmobility 	totalTime 	59
scalar LocScenario.node[11].veinsmobility 	stopTime 	71.130738285436
scalar LocScenario.node[11].veinsmobility 	minSpeed 	10.45037852393
scalar LocScenario.node[11].veinsmobility 	maxSpeed 	10.499847945163
scalar LocScenario.node[11].veinsmobility 	totalDistance 	616.57664271899
scalar LocScenario.node[11].veinsmobility 	totalCO2Emission 	101.85740906286
scalar LocScenario.node[13].appl 	generatedWSMs 	0
scalar LocScenario.node[13].appl 	receivedWSMs 	0
scalar LocScenario.node[13].appl 	generatedBSMs 	1132
scalar LocScenario.node[13].appl 	receivedBSMs 	14035
scalar LocScenario.node[13].appl 	generatedWSAs 	0
scalar LocScenario.node[13].appl 	receivedWSAs 	0
scalar LocScenario.node[13].appl 	rmseGPS 	8.961486137228
scalar LocScenario.node[13].appl 	rmseDRCP 	8.961486137228
scalar LocScenario.node[13].appl 	timeOutage 	-71.11058987251
scalar LocScenario.node[13].nic.phy80211p 	busyTime 	0.025998742813125
scalar LocScenario.node[13].nic.mac1609_4 	ReceivedUnicastPackets 	0
scalar LocScenario.node[13].nic.mac1609_4 	ReceivedBroadcasts 	14035
scalar LocScenario.node[13].nic.mac1609_4 	SentPackets 	1132
scalar LocScenario.node[13].nic.mac1609_4 	SNIRLostPackets 	121
scalar LocScenario.node[13].nic.mac1609_4 	RXTXLostPackets 	0
scalar LocScenario.node[13].nic.mac1609_4 	TotalLostPackets 	121
scalar LocScenario.node[13].nic.mac1609_4 	DroppedPacketsInMac 	0
scalar LocScenario.node[13].nic.mac1609_4 	TooLittleTime 	0
scalar LocScenario.node[13].nic.mac1609_4 	TimesIntoBackoff 	1699
scalar LocScenario.node[13].nic.mac1609_4 	SlotsBackoff 	2631
scalar LocScenario.node[13].nic.mac1609_4 	NumInternalContention 	0
scalar LocScenario.node[13].nic.mac1609_4 	totalBusyTime 	1.584844
scalar LocScenario.node[13].veinsmobility 	startTime 	14.5
scalar LocScenario.node[13].veinsmobility 	totalTime 	56.6
scalar LocScenario.node[13].veinsmobility 	stopTime 	71.130738285436
scalar LocScenario.node[13].veinsmobility 	minSpeed 	10.450036100612
scalar LocScenario.node[13].veinsmobility 	maxSpeed 	10.499911380641
scalar LocScenario.node[13].veinsmobility 	totalDistance 	591.36771865061
scalar LocScenario.node[13].veinsmobility 	totalCO2Emission 	97.867064214292
scalar LocScenario.node[15].appl 	generatedWSMs 	0
scalar LocScenario.node[15].appl 	receivedWSMs 	0
scalar LocScenario.node[15].appl 	generatedBSMs 	1085
scalar LocScenario.node[15].appl 	receivedBSMs 	13900
scalar LocScenario.node[15].appl 	generatedWSAs 	0
scalar LocScenario.node[15].appl 	receivedWSAs 	0
scalar LocScenario.node[15].appl 	rmseGPS 	37.584802725603
scalar LocScenario.node[15].appl 	rmseDRCP 	7.8728690805791
scalar LocScenario.node[15].appl 	timeOutage 	18.6
scalar LocScenario.node[15].nic.phy80211p 	busyTime 	0.027780259823699
scalar LocScenario.node[15].nic.mac1609_4 	ReceivedUnicastPackets 	0
scalar LocScenario.node[15].nic.mac1609_4 	ReceivedBroadcasts 	13900
scalar LocScenario.node[15].nic.mac1609_4 	SentPackets 	1085
scalar LocScenario.node[15].nic.mac1609_4 	SNIRLostPackets 	585
scalar LocScenario.node[15].nic.mac1609_4 	RXTXLostPackets 	0
scalar LocScenario.node[15].nic.mac1609_4 	TotalLostPackets 	585
scalar LocScenario.node[15].nic.mac1609_4 	DroppedPacketsInMac 	0
scalar LocScenario.node[15].nic.mac1609_4 	TooLittleTime 	0
scalar LocScenario.node[15].nic.mac1609_4 	TimesIntoBackoff 	1085
scalar LocScenario.node[15].nic.mac1609_4 	SlotsBackoff 	1596
scalar LocScenario.node[15].nic.mac1609_4 	NumInternalContention 	0
scalar LocScenario.node[15].nic.mac1609_4 	totalBusyTime 	1.589997
scalar LocScenario.node[15].veinsmobility 	startTime 	16.9
scalar LocScenario.node[15].veinsmobility 	totalTime 	54.2
scalar LocScenario.node[15].veinsmobility 	stopTime 	71.130738285436
scalar LocScenario.node[15].veinsmobility 	minSpeed 	10.450082256005
scalar LocScenario.node[15].veinsmobility 	maxSpeed 	10.49998730768
scalar LocScenario.node[15].veinsmobility 	totalDistance 	571.18323286598
scalar LocScenario.node[15].veinsmobility 	totalCO2Emission 	93.776543121705
scalar LocScenario.node[17].appl 	generatedWSMs 	0
scalar LocScenario.node[17].appl 	receivedWSMs 	0
scalar LocScenario.node[17].appl 	generatedBSMs 	1037
scalar LocScenario.node[17].appl 	receivedBSMs 	13939
scalar LocScenario.node[17].appl 	generatedWSAs 	0
scalar LocScenario.node[17].appl 	receivedWSAs 	0
scalar LocScenario.node[17].appl 	rmseGPS 	9.1915712115388
scalar LocScenario.node[17].appl 	rmseDRCP 	9.1915712115388
scalar LocScenario.node[17].appl 	timeOutage 	-71.12358457949
scalar LocScenario.node[17].nic.phy80211p 	busyTime 	0.029373612075834
scalar LocScenario.node[17].nic.mac1609_4 	ReceivedUnicastPackets 	0
scalar LocScenario.node[17].nic.mac1609_4 	ReceivedBroadcasts 	13939
scalar LocScenario.node[17].nic.mac1609_4 	SentPackets 	1037
scalar LocScenario.node[17].nic.mac1609_4 	SNIRLostPackets 	699
scalar LocScenario.node[17].nic.mac1609_4 	RXTXLostPackets 	0
scalar LocScenario.node[17].nic.mac1609_4 	TotalLostPackets 	699
scalar LocScenario.node[17].nic.mac1609_4 	DroppedPacketsInMac 	0
scalar LocScenario.node[17].nic.mac1609_4 	TooLittleTime 	0
scalar LocScenario.node[17].nic.mac1609_4 	TimesIntoBackoff 	1037
scalar LocScenario.node[17].nic.mac1609_4 	SlotsBackoff 	1530
scalar LocScenario.node[17].nic.mac1609_4 	NumInternalContention 	0
scalar LocScenario.node[17].nic.mac1609_4 	totalBusyTime 	1.594941
scalar LocScenario.node[17].veinsmobility 	startTime 	19.3
scalar LocScenario.node[17].veinsmobility 	totalTime 	51.8
scalar LocScenario.node[17].veinsmobility 	stopTime 	71.130738285436
scalar LocScenario.node[17].veinsmobility 	minSpeed 	10.450172462605
scalar LocScenario.node[17].veinsmobility 	maxSpeed 	10.49978691499
scalar LocScenario.node[17].veinsmobility 	totalDistance 	546.13831082175
scalar LocScenario.node[17].veinsmobility 	totalCO2Emission 	89.333779807457
scalar LocScenario.node[19].appl 	generatedWSMs 	0
scalar LocScenario.node[19].appl 	receivedWSMs 	0
scalar LocScenario.node[19].appl 	generatedBSMs 	988
scalar LocScenario.node[19].appl 	receivedBSMs 	13605
scalar LocScenario.node[19].appl 	generatedWSAs 	0
scalar LocScenario.node[19].appl 	receivedWSAs 	0
scalar LocScenario.node[19].appl 	rmseGPS 	84.062900722813
scalar LocScenario.node[19].appl 	rmseDRCP 	7.0221820896656
scalar LocScenario.node[19].appl 	timeOutage 	29.6
scalar LocScenario.node[19].nic.phy80211p 	busyTime 	0.030097062103537
scalar LocScenario.node[19].nic.mac1609_4 	ReceivedUnicastPackets 	0
scalar LocScenario.node[19].nic.mac1609_4 	ReceivedBroadcasts 	13605
scalar LocScenario.node[19].nic.mac1609_4 	SentPackets 	988
scalar LocScenario.node[19].nic.mac1609_4 	SNIRLostPackets 	699
scalar LocScenario.node[19].nic.mac1609_4 	RXTXLostPackets 	0
scalar LocScenario.node[19].nic.mac1609_4 	TotalLostPackets 	699
scalar LocScenario.node[19].nic.mac1609_4 	DroppedPacketsInMac 	0
scalar LocScenario.node[19].nic.mac1609_4 	TooLittleTime 	0
scalar LocScenario.node[19].nic.mac1609_4 	TimesIntoBackoff 	988
scalar LocScenario.node[19].nic.mac1609_4 	SlotsBackoff 	1498
scalar LocScenario.node[19].nic.mac1609_4 	NumInternalContention 	0
scalar LocScenario.node[19].nic.mac1609_4 	totalBusyTime 	1.55506
scalar LocScenario.node[19].veinsmobility 	startTime 	21.7
scalar LocScenario.node[19].veinsmobility 	totalTime 	49.4
scalar LocScenario.node[19].veinsmobility 	stopTime 	71.130738285436
scalar LocScenario.node[19].veinsmobility 	minSpeed 	10.450100299821
scalar LocScenario.node[19].veinsmobility 	maxSpeed 	10.499904276046
scalar LocScenario.node[19].veinsmobility 	totalDistance 	516.09246060568
scalar LocScenario.node[19].veinsmobility 	totalCO2Emission 	85.439353449866
scalar LocScenario.rsu[0].appl 	generatedWSMs 	0
scalar LocScenario.rsu[0].appl 	receivedWSMs 	0
scalar LocScenario.rsu[0].appl 	generatedBSMs 	0
scalar LocScenario.rsu[0].appl 	receivedBSMs 	1941
scalar LocScenario.rsu[0].appl 	generatedWSAs 	0
scalar LocScenario.rsu[0].appl 	receivedWSAs 	0
scalar LocScenario.rsu[0].appl 	rmseGPS 	-nan
scalar LocScenario.rsu[0].appl 	rmseDRCP 	-nan
scalar LocScenario.rsu[0].appl 	timeOutage 	0
scalar LocScenario.rsu[0].nic.phy80211p 	busyTime 	0.00293442757704
scalar LocScenario.rsu[0].nic.mac1609_4 	ReceivedUnicastPackets 	0
scalar LocScenario.rsu[0].nic.mac1609_4 	ReceivedBroadcasts 	1941
scalar LocScenario.rsu[0].nic.mac1609_4 	SentPackets 	0
scalar LocScenario.rsu[0].nic.mac1609_4 	SNIRLostPackets 	66
scalar LocScenario.rsu[0].nic.mac1609_4 	RXTXLostPackets 	0
scalar LocScenario.rsu[0].nic.mac1609_4 	TotalLostPackets 	66
scalar LocScenario.rsu[0].nic.mac1609_4 	DroppedPacketsInMac 	0
scalar LocScenario.rsu[0].nic.mac1609_4 	TooLittleTime 	0
scalar LocScenario.rsu[0].nic.mac1609_4 	TimesIntoBackoff 	0
scalar LocScenario.rsu[0].nic.mac1609_4 	SlotsBackoff 	0
scalar LocScenario.rsu[0].nic.mac1609_4 	NumInternalContention 	0
scalar LocScenario.rsu[0].nic.mac1609_4 	totalBusyTime 	0.206336
scalar LocScenario.outagesServer.appl 	generatedWSMs 	841818168
scalar LocScenario.outagesServer.appl 	receivedWSMs 	540292403
scalar LocScenario.outagesServer.appl 	generatedBSMs 	0
scalar LocScenario.outagesServer.appl 	receivedBSMs 	757086008
scalar LocScenario.outagesServer.appl 	generatedWSAs 	909325102
scalar LocScenario.outagesServer.appl 	receivedWSAs 	0
scalar LocScenario.outagesServer.nic.phy80211p 	busyTime 	0
scalar LocScenario.outagesServer.nic.mac1609_4 	ReceivedUnicastPackets 	0
scalar LocScenario.outagesServer.nic.mac1609_4 	ReceivedBroadcasts 	0
scalar LocScenario.outagesServer.nic.mac1609_4 	SentPackets 	0
scalar LocScenario.outagesServer.nic.mac1609_4 	SNIRLostPackets 	0
scalar LocScenario.outagesServer.nic.mac1609_4 	RXTXLostPackets 	0
scalar LocScenario.outagesServer.nic.mac1609_4 	TotalLostPackets 	0
scalar LocScenario.outagesServer.nic.mac1609_4 	DroppedPacketsInMac 	0
scalar LocScenario.outagesServer.nic.mac1609_4 	TooLittleTime 	0
scalar LocScenario.outagesServer.nic.mac1609_4 	TimesIntoBackoff 	0
scalar LocScenario.outagesServer.nic.mac1609_4 	SlotsBackoff 	0
scalar LocScenario.outagesServer.nic.mac1609_4 	NumInternalContention 	0
scalar LocScenario.outagesServer.nic.mac1609_4 	totalBusyTime 	0
