version 2
run DMAT-0-20170731-16:48:09-15074
attr configname DMAT
attr datetime 20170731-16:48:09
attr experiment DMAT
attr inifile omnetpp.ini
attr iterationvars "$logDistVehPar=25, $totHops=1"
attr iterationvars2 "$logDistVehPar=25, $totHops=1, $repetition=0"
attr logDistVehPar 25
attr measurement "$logDistVehPar=25, $totHops=1"
attr network com.liborio.cooperativepositioning.LocScenario
attr processid 15074
attr repetition 0
attr replication #0
attr resultdir results
attr runnumber 0
attr seedset 3
attr totHops 1
param **.coreDebug false
param **.debug false
param *.annotations.draw false
param *.connectionManager.drawMaxIntfDist false
param *.connectionManager.maxInterfDist 600m
param *.connectionManager.sendDirect true
param *.manager.autoShutdown true
param *.manager.host "\"localhost\""
param *.manager.launchConfig "xmldoc(\"dmat-\"+string(${logDistVehPar = 25,50, 100, 150})+\".launchd.xml\")"
param *.manager.port 9999
param *.manager.updateInterval 0.1s
param *.node[*].appl.beaconInterval 0.1s
param *.node[*].appl.dataOnSch false
param *.node[*].appl.forwardBeacons true
param *.node[*].appl.forwardInterval 0.1s
param *.node[*].appl.headerLength "80 bit"
param *.node[*].appl.logDistVehPar ${logDistVehPar}
param *.node[*].appl.logSeedPar ${seedset}
param *.node[*].appl.numHops ${totHops=1,2,3,4,5}
param *.node[*].appl.sendBeacons true
param *.node[*].applType "\"LocAppCom\""
param *.node[*].nic.mac1609_4.bitrate 6Mbps
param *.node[*].nic.mac1609_4.txPower 20mW
param *.node[*].nic.mac1609_4.useServiceChannel false
param *.node[*].nic.phy80211p.analogueModels "xmldoc(\"config.xml\")"
param *.node[*].nic.phy80211p.antenna "xmldoc(\"antenna.xml\", \"/root/Antenna[@id='monopole']\")"
param *.node[*].nic.phy80211p.decider "xmldoc(\"config.xml\")"
param *.node[*].nic.phy80211p.sensitivity -84.39dBm
param *.node[*].nic.phy80211p.thermalNoise -110dBm
param *.node[*].nic.phy80211p.usePropagationDelay true
param *.node[*].nic.phy80211p.useThermalNoise true
param *.node[*].veinsmobility.x 0
param *.node[*].veinsmobility.y 0
param *.node[*].veinsmobility.z 1.895
param *.node[*].veinsmobilityType.debug true
param *.outagesServer.appl.beaconInterval 0.1s
param *.outagesServer.appl.beaconPriority 3
param *.outagesServer.appl.dataOnSch false
param *.outagesServer.appl.dataPriority 2
param *.outagesServer.appl.headerLength "80 bit"
param *.outagesServer.appl.sendBeacons false
param *.outagesServer.applType "\"Outages\""
param *.outagesServer.mobility.x 5000.0
param *.outagesServer.mobility.y 10.0
param *.outagesServer.mobility.z 3
param *.outagesServer.nic.mac1609_4.bitrate 6Mbps
param *.outagesServer.nic.mac1609_4.txPower 20mW
param *.outagesServer.nic.mac1609_4.useServiceChannel false
param *.outagesServer.nic.phy80211p.analogueModels "xmldoc(\"config.xml\")"
param *.outagesServer.nic.phy80211p.antenna "xmldoc(\"antenna.xml\", \"/root/Antenna[@id='monopole']\")"
param *.outagesServer.nic.phy80211p.decider "xmldoc(\"config.xml\")"
param *.outagesServer.nic.phy80211p.sensitivity -90.41dBm
param *.outagesServer.nic.phy80211p.thermalNoise -110dBm
param *.outagesServer.nic.phy80211p.usePropagationDelay true
param *.outagesServer.nic.phy80211p.useThermalNoise true
param *.playgroundSizeX 5500m
param *.playgroundSizeY 5500m
param *.playgroundSizeZ 50m
param *.rsu[*].appl.beaconInterval 0.1s
param *.rsu[*].appl.beaconPriority 3
param *.rsu[*].appl.dataOnSch false
param *.rsu[*].appl.dataPriority 2
param *.rsu[*].appl.forwardBeacons false
param *.rsu[*].appl.forwardInterval 0.1s
param *.rsu[*].appl.headerLength "80 bit"
param *.rsu[*].appl.numHops ${totHops}
param *.rsu[*].appl.sendBeacons false
param *.rsu[*].applType "\"RSU\""
param *.rsu[*].nic.mac1609_4.bitrate 6Mbps
param *.rsu[*].nic.mac1609_4.txPower 20mW
param *.rsu[*].nic.mac1609_4.useServiceChannel false
param *.rsu[*].nic.phy80211p.analogueModels "xmldoc(\"config.xml\")"
param *.rsu[*].nic.phy80211p.antenna "xmldoc(\"antenna.xml\", \"/root/Antenna[@id='monopole']\")"
param *.rsu[*].nic.phy80211p.decider "xmldoc(\"config.xml\")"
param *.rsu[*].nic.phy80211p.sensitivity -90.41dBm
param *.rsu[*].nic.phy80211p.thermalNoise -110dBm
param *.rsu[*].nic.phy80211p.usePropagationDelay true
param *.rsu[*].nic.phy80211p.useThermalNoise true
param *.rsu[0].mobility.x 385.772
param *.rsu[0].mobility.y 1238.66
param *.rsu[0].mobility.z 3

scalar . 	logDistVehPar 	25
scalar . 	totHops 	1
scalar LocScenario.node[0].appl 	generatedWSMs 	0
scalar LocScenario.node[0].appl 	receivedWSMs 	0
scalar LocScenario.node[0].appl 	generatedBSMs 	1398
scalar LocScenario.node[0].appl 	receivedBSMs 	10181
scalar LocScenario.node[0].appl 	generatedWSAs 	0
scalar LocScenario.node[0].appl 	receivedWSAs 	0
scalar LocScenario.node[0].appl 	rmseGPS 	338.20262897754
scalar LocScenario.node[0].appl 	rmseDRCP 	4.8577260031413
scalar LocScenario.node[0].appl 	timeOutage 	67.9
scalar LocScenario.node[0].nic.phy80211p 	busyTime 	0.01490390408663
scalar LocScenario.node[0].nic.mac1609_4 	ReceivedUnicastPackets 	0
scalar LocScenario.node[0].nic.mac1609_4 	ReceivedBroadcasts 	10181
scalar LocScenario.node[0].nic.mac1609_4 	SentPackets 	1398
scalar LocScenario.node[0].nic.mac1609_4 	SNIRLostPackets 	7
scalar LocScenario.node[0].nic.mac1609_4 	RXTXLostPackets 	0
scalar LocScenario.node[0].nic.mac1609_4 	TotalLostPackets 	7
scalar LocScenario.node[0].nic.mac1609_4 	DroppedPacketsInMac 	0
scalar LocScenario.node[0].nic.mac1609_4 	TooLittleTime 	0
scalar LocScenario.node[0].nic.mac1609_4 	TimesIntoBackoff 	1398
scalar LocScenario.node[0].nic.mac1609_4 	SlotsBackoff 	2066
scalar LocScenario.node[0].nic.mac1609_4 	NumInternalContention 	0
scalar LocScenario.node[0].nic.mac1609_4 	totalBusyTime 	1.206342
scalar LocScenario.node[0].veinsmobility 	startTime 	0.1
scalar LocScenario.node[0].veinsmobility 	totalTime 	71
scalar LocScenario.node[0].veinsmobility 	stopTime 	71.192244947452
scalar LocScenario.node[0].veinsmobility 	minSpeed 	10.450009571214
scalar LocScenario.node[0].veinsmobility 	maxSpeed 	10.499868466612
scalar LocScenario.node[0].veinsmobility 	totalDistance 	743.33699661147
scalar LocScenario.node[0].veinsmobility 	totalCO2Emission 	122.39557325874
scalar LocScenario.node[2].appl 	generatedWSMs 	0
scalar LocScenario.node[2].appl 	receivedWSMs 	0
scalar LocScenario.node[2].appl 	generatedBSMs 	1357
scalar LocScenario.node[2].appl 	receivedBSMs 	11195
scalar LocScenario.node[2].appl 	generatedWSAs 	0
scalar LocScenario.node[2].appl 	receivedWSAs 	0
scalar LocScenario.node[2].appl 	rmseGPS 	58.617968126529
scalar LocScenario.node[2].appl 	rmseDRCP 	9.3348568633453
scalar LocScenario.node[2].appl 	timeOutage 	25.9
scalar LocScenario.node[2].nic.phy80211p 	busyTime 	0.016953762406382
scalar LocScenario.node[2].nic.mac1609_4 	ReceivedUnicastPackets 	0
scalar LocScenario.node[2].nic.mac1609_4 	ReceivedBroadcasts 	11195
scalar LocScenario.node[2].nic.mac1609_4 	SentPackets 	1357
scalar LocScenario.node[2].nic.mac1609_4 	SNIRLostPackets 	3
scalar LocScenario.node[2].nic.mac1609_4 	RXTXLostPackets 	0
scalar LocScenario.node[2].nic.mac1609_4 	TotalLostPackets 	3
scalar LocScenario.node[2].nic.mac1609_4 	DroppedPacketsInMac 	0
scalar LocScenario.node[2].nic.mac1609_4 	TooLittleTime 	0
scalar LocScenario.node[2].nic.mac1609_4 	TimesIntoBackoff 	1357
scalar LocScenario.node[2].nic.mac1609_4 	SlotsBackoff 	2009
scalar LocScenario.node[2].nic.mac1609_4 	NumInternalContention 	0
scalar LocScenario.node[2].nic.mac1609_4 	totalBusyTime 	1.307077
scalar LocScenario.node[2].veinsmobility 	startTime 	2.5
scalar LocScenario.node[2].veinsmobility 	totalTime 	68.6
scalar LocScenario.node[2].veinsmobility 	stopTime 	71.192244947452
scalar LocScenario.node[2].veinsmobility 	minSpeed 	10.45004398335
scalar LocScenario.node[2].veinsmobility 	maxSpeed 	10.499864839285
scalar LocScenario.node[2].veinsmobility 	totalDistance 	718.11953707441
scalar LocScenario.node[2].veinsmobility 	totalCO2Emission 	118.3565124718
scalar LocScenario.node[20].appl 	generatedWSMs 	0
scalar LocScenario.node[20].appl 	receivedWSMs 	0
scalar LocScenario.node[20].appl 	generatedBSMs 	941
scalar LocScenario.node[20].appl 	receivedBSMs 	14226
scalar LocScenario.node[20].appl 	generatedWSAs 	0
scalar LocScenario.node[20].appl 	receivedWSAs 	0
scalar LocScenario.node[20].appl 	rmseGPS 	50.370825650359
scalar LocScenario.node[20].appl 	rmseDRCP 	7.0238594051517
scalar LocScenario.node[20].appl 	timeOutage 	20.9
scalar LocScenario.node[20].nic.phy80211p 	busyTime 	0.03143923169627
scalar LocScenario.node[20].nic.mac1609_4 	ReceivedUnicastPackets 	0
scalar LocScenario.node[20].nic.mac1609_4 	ReceivedBroadcasts 	14226
scalar LocScenario.node[20].nic.mac1609_4 	SentPackets 	941
scalar LocScenario.node[20].nic.mac1609_4 	SNIRLostPackets 	10
scalar LocScenario.node[20].nic.mac1609_4 	RXTXLostPackets 	0
scalar LocScenario.node[20].nic.mac1609_4 	TotalLostPackets 	10
scalar LocScenario.node[20].nic.mac1609_4 	DroppedPacketsInMac 	0
scalar LocScenario.node[20].nic.mac1609_4 	TooLittleTime 	0
scalar LocScenario.node[20].nic.mac1609_4 	TimesIntoBackoff 	941
scalar LocScenario.node[20].nic.mac1609_4 	SlotsBackoff 	1364
scalar LocScenario.node[20].nic.mac1609_4 	NumInternalContention 	0
scalar LocScenario.node[20].nic.mac1609_4 	totalBusyTime 	1.578309
scalar LocScenario.node[20].veinsmobility 	startTime 	24.1
scalar LocScenario.node[20].veinsmobility 	totalTime 	47
scalar LocScenario.node[20].veinsmobility 	stopTime 	71.192244947452
scalar LocScenario.node[20].veinsmobility 	minSpeed 	10.450007308309
scalar LocScenario.node[20].veinsmobility 	maxSpeed 	10.499968856142
scalar LocScenario.node[20].veinsmobility 	totalDistance 	495.03492134815
scalar LocScenario.node[20].veinsmobility 	totalCO2Emission 	81.150290206334
scalar LocScenario.node[22].appl 	generatedWSMs 	0
scalar LocScenario.node[22].appl 	receivedWSMs 	0
scalar LocScenario.node[22].appl 	generatedBSMs 	893
scalar LocScenario.node[22].appl 	receivedBSMs 	13463
scalar LocScenario.node[22].appl 	generatedWSAs 	0
scalar LocScenario.node[22].appl 	receivedWSAs 	0
scalar LocScenario.node[22].appl 	rmseGPS 	102.89561070962
scalar LocScenario.node[22].appl 	rmseDRCP 	5.941397903222
scalar LocScenario.node[22].appl 	timeOutage 	30.3
scalar LocScenario.node[22].nic.phy80211p 	busyTime 	0.031354343502949
scalar LocScenario.node[22].nic.mac1609_4 	ReceivedUnicastPackets 	0
scalar LocScenario.node[22].nic.mac1609_4 	ReceivedBroadcasts 	13463
scalar LocScenario.node[22].nic.mac1609_4 	SentPackets 	893
scalar LocScenario.node[22].nic.mac1609_4 	SNIRLostPackets 	11
scalar LocScenario.node[22].nic.mac1609_4 	RXTXLostPackets 	0
scalar LocScenario.node[22].nic.mac1609_4 	TotalLostPackets 	11
scalar LocScenario.node[22].nic.mac1609_4 	DroppedPacketsInMac 	0
scalar LocScenario.node[22].nic.mac1609_4 	TooLittleTime 	0
scalar LocScenario.node[22].nic.mac1609_4 	TimesIntoBackoff 	893
scalar LocScenario.node[22].nic.mac1609_4 	SlotsBackoff 	1318
scalar LocScenario.node[22].nic.mac1609_4 	NumInternalContention 	0
scalar LocScenario.node[22].nic.mac1609_4 	totalBusyTime 	1.494021
scalar LocScenario.node[22].veinsmobility 	startTime 	26.5
scalar LocScenario.node[22].veinsmobility 	totalTime 	44.6
scalar LocScenario.node[22].veinsmobility 	stopTime 	71.192244947452
scalar LocScenario.node[22].veinsmobility 	minSpeed 	10.450183135003
scalar LocScenario.node[22].veinsmobility 	maxSpeed 	10.499981632491
scalar LocScenario.node[22].veinsmobility 	totalDistance 	466.1043396651
scalar LocScenario.node[22].veinsmobility 	totalCO2Emission 	76.905627124976
scalar LocScenario.node[24].appl 	generatedWSMs 	0
scalar LocScenario.node[24].appl 	receivedWSMs 	0
scalar LocScenario.node[24].appl 	generatedBSMs 	845
scalar LocScenario.node[24].appl 	receivedBSMs 	12643
scalar LocScenario.node[24].appl 	generatedWSAs 	0
scalar LocScenario.node[24].appl 	receivedWSAs 	0
scalar LocScenario.node[24].appl 	rmseGPS 	9.2613866041777
scalar LocScenario.node[24].appl 	rmseDRCP 	9.1144452345865
scalar LocScenario.node[24].appl 	timeOutage 	3.7
scalar LocScenario.node[24].nic.phy80211p 	busyTime 	0.031139325936388
scalar LocScenario.node[24].nic.mac1609_4 	ReceivedUnicastPackets 	0
scalar LocScenario.node[24].nic.mac1609_4 	ReceivedBroadcasts 	12643
scalar LocScenario.node[24].nic.mac1609_4 	SentPackets 	845
scalar LocScenario.node[24].nic.mac1609_4 	SNIRLostPackets 	20
scalar LocScenario.node[24].nic.mac1609_4 	RXTXLostPackets 	0
scalar LocScenario.node[24].nic.mac1609_4 	TotalLostPackets 	20
scalar LocScenario.node[24].nic.mac1609_4 	DroppedPacketsInMac 	0
scalar LocScenario.node[24].nic.mac1609_4 	TooLittleTime 	0
scalar LocScenario.node[24].nic.mac1609_4 	TimesIntoBackoff 	845
scalar LocScenario.node[24].nic.mac1609_4 	SlotsBackoff 	1309
scalar LocScenario.node[24].nic.mac1609_4 	NumInternalContention 	0
scalar LocScenario.node[24].nic.mac1609_4 	totalBusyTime 	1.404637
scalar LocScenario.node[24].veinsmobility 	startTime 	28.9
scalar LocScenario.node[24].veinsmobility 	totalTime 	42.2
scalar LocScenario.node[24].veinsmobility 	stopTime 	71.192244947452
scalar LocScenario.node[24].veinsmobility 	minSpeed 	10.450077797729
scalar LocScenario.node[24].veinsmobility 	maxSpeed 	10.499952634517
scalar LocScenario.node[24].veinsmobility 	totalDistance 	441.03570388571
scalar LocScenario.node[24].veinsmobility 	totalCO2Emission 	72.909463545492
scalar LocScenario.node[26].appl 	generatedWSMs 	0
scalar LocScenario.node[26].appl 	receivedWSMs 	0
scalar LocScenario.node[26].appl 	generatedBSMs 	796
scalar LocScenario.node[26].appl 	receivedBSMs 	11770
scalar LocScenario.node[26].appl 	generatedWSAs 	0
scalar LocScenario.node[26].appl 	receivedWSAs 	0
scalar LocScenario.node[26].appl 	rmseGPS 	57.535884708044
scalar LocScenario.node[26].appl 	rmseDRCP 	6.9957379699696
scalar LocScenario.node[26].appl 	timeOutage 	20.7
scalar LocScenario.node[26].nic.phy80211p 	busyTime 	0.030736801140556
scalar LocScenario.node[26].nic.mac1609_4 	ReceivedUnicastPackets 	0
scalar LocScenario.node[26].nic.mac1609_4 	ReceivedBroadcasts 	11770
scalar LocScenario.node[26].nic.mac1609_4 	SentPackets 	796
scalar LocScenario.node[26].nic.mac1609_4 	SNIRLostPackets 	20
scalar LocScenario.node[26].nic.mac1609_4 	RXTXLostPackets 	0
scalar LocScenario.node[26].nic.mac1609_4 	TotalLostPackets 	20
scalar LocScenario.node[26].nic.mac1609_4 	DroppedPacketsInMac 	0
scalar LocScenario.node[26].nic.mac1609_4 	TooLittleTime 	0
scalar LocScenario.node[26].nic.mac1609_4 	TimesIntoBackoff 	796
scalar LocScenario.node[26].nic.mac1609_4 	SlotsBackoff 	1138
scalar LocScenario.node[26].nic.mac1609_4 	NumInternalContention 	0
scalar LocScenario.node[26].nic.mac1609_4 	totalBusyTime 	1.3087
scalar LocScenario.node[26].veinsmobility 	startTime 	31.3
scalar LocScenario.node[26].veinsmobility 	totalTime 	39.8
scalar LocScenario.node[26].veinsmobility 	stopTime 	71.192244947452
scalar LocScenario.node[26].veinsmobility 	minSpeed 	10.450005135685
scalar LocScenario.node[26].veinsmobility 	maxSpeed 	10.499795635231
scalar LocScenario.node[26].veinsmobility 	totalDistance 	417.14731507427
scalar LocScenario.node[26].veinsmobility 	totalCO2Emission 	68.461033701624
scalar LocScenario.node[28].appl 	generatedWSMs 	0
scalar LocScenario.node[28].appl 	receivedWSMs 	0
scalar LocScenario.node[28].appl 	generatedBSMs 	749
scalar LocScenario.node[28].appl 	receivedBSMs 	10944
scalar LocScenario.node[28].appl 	generatedWSAs 	0
scalar LocScenario.node[28].appl 	receivedWSAs 	0
scalar LocScenario.node[28].appl 	rmseGPS 	35.603302670572
scalar LocScenario.node[28].appl 	rmseDRCP 	7.6906566188478
scalar LocScenario.node[28].appl 	timeOutage 	14.3
scalar LocScenario.node[28].nic.phy80211p 	busyTime 	0.030413116141704
scalar LocScenario.node[28].nic.mac1609_4 	ReceivedUnicastPackets 	0
scalar LocScenario.node[28].nic.mac1609_4 	ReceivedBroadcasts 	10944
scalar LocScenario.node[28].nic.mac1609_4 	SentPackets 	749
scalar LocScenario.node[28].nic.mac1609_4 	SNIRLostPackets 	20
scalar LocScenario.node[28].nic.mac1609_4 	RXTXLostPackets 	0
scalar LocScenario.node[28].nic.mac1609_4 	TotalLostPackets 	20
scalar LocScenario.node[28].nic.mac1609_4 	DroppedPacketsInMac 	0
scalar LocScenario.node[28].nic.mac1609_4 	TooLittleTime 	0
scalar LocScenario.node[28].nic.mac1609_4 	TimesIntoBackoff 	749
scalar LocScenario.node[28].nic.mac1609_4 	SlotsBackoff 	1144
scalar LocScenario.node[28].nic.mac1609_4 	NumInternalContention 	0
scalar LocScenario.node[28].nic.mac1609_4 	totalBusyTime 	1.217861
scalar LocScenario.node[28].veinsmobility 	startTime 	33.7
scalar LocScenario.node[28].veinsmobility 	totalTime 	37.4
scalar LocScenario.node[28].veinsmobility 	stopTime 	71.192244947452
scalar LocScenario.node[28].veinsmobility 	minSpeed 	10.450044910994
scalar LocScenario.node[28].veinsmobility 	maxSpeed 	10.499806675909
scalar LocScenario.node[28].veinsmobility 	totalDistance 	394.30394907516
scalar LocScenario.node[28].veinsmobility 	totalCO2Emission 	64.430897940413
scalar LocScenario.node[30].appl 	generatedWSMs 	0
scalar LocScenario.node[30].appl 	receivedWSMs 	0
scalar LocScenario.node[30].appl 	generatedBSMs 	700
scalar LocScenario.node[30].appl 	receivedBSMs 	10121
scalar LocScenario.node[30].appl 	generatedWSAs 	0
scalar LocScenario.node[30].appl 	receivedWSAs 	0
scalar LocScenario.node[30].appl 	rmseGPS 	9.0702473295429
scalar LocScenario.node[30].appl 	rmseDRCP 	9.1424038971724
scalar LocScenario.node[30].appl 	timeOutage 	2
scalar LocScenario.node[30].nic.phy80211p 	busyTime 	0.030054047598815
scalar LocScenario.node[30].nic.mac1609_4 	ReceivedUnicastPackets 	0
scalar LocScenario.node[30].nic.mac1609_4 	ReceivedBroadcasts 	10121
scalar LocScenario.node[30].nic.mac1609_4 	SentPackets 	700
scalar LocScenario.node[30].nic.mac1609_4 	SNIRLostPackets 	20
scalar LocScenario.node[30].nic.mac1609_4 	RXTXLostPackets 	0
scalar LocScenario.node[30].nic.mac1609_4 	TotalLostPackets 	20
scalar LocScenario.node[30].nic.mac1609_4 	DroppedPacketsInMac 	0
scalar LocScenario.node[30].nic.mac1609_4 	TooLittleTime 	0
scalar LocScenario.node[30].nic.mac1609_4 	TimesIntoBackoff 	700
scalar LocScenario.node[30].nic.mac1609_4 	SlotsBackoff 	1076
scalar LocScenario.node[30].nic.mac1609_4 	NumInternalContention 	0
scalar LocScenario.node[30].nic.mac1609_4 	totalBusyTime 	1.127124
scalar LocScenario.node[30].veinsmobility 	startTime 	36.1
scalar LocScenario.node[30].veinsmobility 	totalTime 	35
scalar LocScenario.node[30].veinsmobility 	stopTime 	71.192244947452
scalar LocScenario.node[30].veinsmobility 	minSpeed 	10.450014580821
scalar LocScenario.node[30].veinsmobility 	maxSpeed 	10.499868757115
scalar LocScenario.node[30].veinsmobility 	totalDistance 	365.62767849121
scalar LocScenario.node[30].veinsmobility 	totalCO2Emission 	60.351536848456
scalar LocScenario.node[32].appl 	generatedWSMs 	0
scalar LocScenario.node[32].appl 	receivedWSMs 	0
scalar LocScenario.node[32].appl 	generatedBSMs 	653
scalar LocScenario.node[32].appl 	receivedBSMs 	9248
scalar LocScenario.node[32].appl 	generatedWSAs 	0
scalar LocScenario.node[32].appl 	receivedWSAs 	0
scalar LocScenario.node[32].appl 	rmseGPS 	9.029415191675
scalar LocScenario.node[32].appl 	rmseDRCP 	9.029415191675
scalar LocScenario.node[32].appl 	timeOutage 	-71.137878252543
scalar LocScenario.node[32].nic.phy80211p 	busyTime 	0.02941957646365
scalar LocScenario.node[32].nic.mac1609_4 	ReceivedUnicastPackets 	0
scalar LocScenario.node[32].nic.mac1609_4 	ReceivedBroadcasts 	9248
scalar LocScenario.node[32].nic.mac1609_4 	SentPackets 	653
scalar LocScenario.node[32].nic.mac1609_4 	SNIRLostPackets 	0
scalar LocScenario.node[32].nic.mac1609_4 	RXTXLostPackets 	10
scalar LocScenario.node[32].nic.mac1609_4 	TotalLostPackets 	10
scalar LocScenario.node[32].nic.mac1609_4 	DroppedPacketsInMac 	0
scalar LocScenario.node[32].nic.mac1609_4 	TooLittleTime 	0
scalar LocScenario.node[32].nic.mac1609_4 	TimesIntoBackoff 	812
scalar LocScenario.node[32].nic.mac1609_4 	SlotsBackoff 	1191
scalar LocScenario.node[32].nic.mac1609_4 	NumInternalContention 	0
scalar LocScenario.node[32].nic.mac1609_4 	totalBusyTime 	1.030357
scalar LocScenario.node[32].veinsmobility 	startTime 	38.5
scalar LocScenario.node[32].veinsmobility 	totalTime 	32.6
scalar LocScenario.node[32].veinsmobility 	stopTime 	71.192244947452
scalar LocScenario.node[32].veinsmobility 	minSpeed 	10.45029689885
scalar LocScenario.node[32].veinsmobility 	maxSpeed 	10.499959369411
scalar LocScenario.node[32].veinsmobility 	totalDistance 	341.64213606497
scalar LocScenario.node[32].veinsmobility 	totalCO2Emission 	56.261092994109
scalar LocScenario.node[34].appl 	generatedWSMs 	0
scalar LocScenario.node[34].appl 	receivedWSMs 	0
scalar LocScenario.node[34].appl 	generatedBSMs 	605
scalar LocScenario.node[34].appl 	receivedBSMs 	8406
scalar LocScenario.node[34].appl 	generatedWSAs 	0
scalar LocScenario.node[34].appl 	receivedWSAs 	0
scalar LocScenario.node[34].appl 	rmseGPS 	9.208239448784
scalar LocScenario.node[34].appl 	rmseDRCP 	9.208239448784
scalar LocScenario.node[34].appl 	timeOutage 	-71.12667735205
scalar LocScenario.node[34].nic.phy80211p 	busyTime 	0.02892832807605
scalar LocScenario.node[34].nic.mac1609_4 	ReceivedUnicastPackets 	0
scalar LocScenario.node[34].nic.mac1609_4 	ReceivedBroadcasts 	8406
scalar LocScenario.node[34].nic.mac1609_4 	SentPackets 	605
scalar LocScenario.node[34].nic.mac1609_4 	SNIRLostPackets 	20
scalar LocScenario.node[34].nic.mac1609_4 	RXTXLostPackets 	0
scalar LocScenario.node[34].nic.mac1609_4 	TotalLostPackets 	20
scalar LocScenario.node[34].nic.mac1609_4 	DroppedPacketsInMac 	0
scalar LocScenario.node[34].nic.mac1609_4 	TooLittleTime 	0
scalar LocScenario.node[34].nic.mac1609_4 	TimesIntoBackoff 	605
scalar LocScenario.node[34].nic.mac1609_4 	SlotsBackoff 	903
scalar LocScenario.node[34].nic.mac1609_4 	NumInternalContention 	0
scalar LocScenario.node[34].nic.mac1609_4 	totalBusyTime 	0.938789
scalar LocScenario.node[34].veinsmobility 	startTime 	40.9
scalar LocScenario.node[34].veinsmobility 	totalTime 	30.2
scalar LocScenario.node[34].veinsmobility 	stopTime 	71.192244947452
scalar LocScenario.node[34].veinsmobility 	minSpeed 	10.45045111808
scalar LocScenario.node[34].veinsmobility 	maxSpeed 	10.49999637733
scalar LocScenario.node[34].veinsmobility 	totalDistance 	315.4067843788
scalar LocScenario.node[34].veinsmobility 	totalCO2Emission 	52.287698205701
scalar LocScenario.node[36].appl 	generatedWSMs 	0
scalar LocScenario.node[36].appl 	receivedWSMs 	0
scalar LocScenario.node[36].appl 	generatedBSMs 	557
scalar LocScenario.node[36].appl 	receivedBSMs 	7578
scalar LocScenario.node[36].appl 	generatedWSAs 	0
scalar LocScenario.node[36].appl 	receivedWSAs 	0
scalar LocScenario.node[36].appl 	rmseGPS 	9.0071356590585
scalar LocScenario.node[36].appl 	rmseDRCP 	9.0071356590585
scalar LocScenario.node[36].appl 	timeOutage 	-71.177482578228
scalar LocScenario.node[36].nic.phy80211p 	busyTime 	0.028330168528516
scalar LocScenario.node[36].nic.mac1609_4 	ReceivedUnicastPackets 	0
scalar LocScenario.node[36].nic.mac1609_4 	ReceivedBroadcasts 	7578
scalar LocScenario.node[36].nic.mac1609_4 	SentPackets 	557
scalar LocScenario.node[36].nic.mac1609_4 	SNIRLostPackets 	20
scalar LocScenario.node[36].nic.mac1609_4 	RXTXLostPackets 	0
scalar LocScenario.node[36].nic.mac1609_4 	TotalLostPackets 	20
scalar LocScenario.node[36].nic.mac1609_4 	DroppedPacketsInMac 	0
scalar LocScenario.node[36].nic.mac1609_4 	TooLittleTime 	0
scalar LocScenario.node[36].nic.mac1609_4 	TimesIntoBackoff 	557
scalar LocScenario.node[36].nic.mac1609_4 	SlotsBackoff 	841
scalar LocScenario.node[36].nic.mac1609_4 	NumInternalContention 	0
scalar LocScenario.node[36].nic.mac1609_4 	totalBusyTime 	0.847637
scalar LocScenario.node[36].veinsmobility 	startTime 	43.3
scalar LocScenario.node[36].veinsmobility 	totalTime 	27.8
scalar LocScenario.node[36].veinsmobility 	stopTime 	71.192244947452
scalar LocScenario.node[36].veinsmobility 	minSpeed 	10.450298868283
scalar LocScenario.node[36].veinsmobility 	maxSpeed 	10.499957467918
scalar LocScenario.node[36].veinsmobility 	totalDistance 	290.30068306259
scalar LocScenario.node[36].veinsmobility 	totalCO2Emission 	47.434415882198
scalar LocScenario.node[38].appl 	generatedWSMs 	0
scalar LocScenario.node[38].appl 	receivedWSMs 	0
scalar LocScenario.node[38].appl 	generatedBSMs 	509
scalar LocScenario.node[38].appl 	receivedBSMs 	6756
scalar LocScenario.node[38].appl 	generatedWSAs 	0
scalar LocScenario.node[38].appl 	receivedWSAs 	0
scalar LocScenario.node[38].appl 	rmseGPS 	18.210874824965
scalar LocScenario.node[38].appl 	rmseDRCP 	7.1837395281787
scalar LocScenario.node[38].appl 	timeOutage 	7.3
scalar LocScenario.node[38].nic.phy80211p 	busyTime 	0.027562264580789
scalar LocScenario.node[38].nic.mac1609_4 	ReceivedUnicastPackets 	0
scalar LocScenario.node[38].nic.mac1609_4 	ReceivedBroadcasts 	6756
scalar LocScenario.node[38].nic.mac1609_4 	SentPackets 	509
scalar LocScenario.node[38].nic.mac1609_4 	SNIRLostPackets 	0
scalar LocScenario.node[38].nic.mac1609_4 	RXTXLostPackets 	0
scalar LocScenario.node[38].nic.mac1609_4 	TotalLostPackets 	0
scalar LocScenario.node[38].nic.mac1609_4 	DroppedPacketsInMac 	0
scalar LocScenario.node[38].nic.mac1609_4 	TooLittleTime 	0
scalar LocScenario.node[38].nic.mac1609_4 	TimesIntoBackoff 	509
scalar LocScenario.node[38].nic.mac1609_4 	SlotsBackoff 	761
scalar LocScenario.node[38].nic.mac1609_4 	NumInternalContention 	0
scalar LocScenario.node[38].nic.mac1609_4 	totalBusyTime 	0.756069
scalar LocScenario.node[38].veinsmobility 	startTime 	45.7
scalar LocScenario.node[38].veinsmobility 	totalTime 	25.4
scalar LocScenario.node[38].veinsmobility 	stopTime 	71.192244947452
scalar LocScenario.node[38].veinsmobility 	minSpeed 	10.450100909185
scalar LocScenario.node[38].veinsmobility 	maxSpeed 	10.499931529502
scalar LocScenario.node[38].veinsmobility 	totalDistance 	268.54370853378
scalar LocScenario.node[38].veinsmobility 	totalCO2Emission 	43.545113054694
scalar LocScenario.node[4].appl 	generatedWSMs 	0
scalar LocScenario.node[4].appl 	receivedWSMs 	0
scalar LocScenario.node[4].appl 	generatedBSMs 	1325
scalar LocScenario.node[4].appl 	receivedBSMs 	12145
scalar LocScenario.node[4].appl 	generatedWSAs 	0
scalar LocScenario.node[4].appl 	receivedWSAs 	0
scalar LocScenario.node[4].appl 	rmseGPS 	167.59480229816
scalar LocScenario.node[4].appl 	rmseDRCP 	6.3914916370834
scalar LocScenario.node[4].appl 	timeOutage 	46.2
scalar LocScenario.node[4].nic.phy80211p 	busyTime 	0.019053209029222
scalar LocScenario.node[4].nic.mac1609_4 	ReceivedUnicastPackets 	0
scalar LocScenario.node[4].nic.mac1609_4 	ReceivedBroadcasts 	12145
scalar LocScenario.node[4].nic.mac1609_4 	SentPackets 	1325
scalar LocScenario.node[4].nic.mac1609_4 	SNIRLostPackets 	0
scalar LocScenario.node[4].nic.mac1609_4 	RXTXLostPackets 	0
scalar LocScenario.node[4].nic.mac1609_4 	TotalLostPackets 	0
scalar LocScenario.node[4].nic.mac1609_4 	DroppedPacketsInMac 	0
scalar LocScenario.node[4].nic.mac1609_4 	TooLittleTime 	0
scalar LocScenario.node[4].nic.mac1609_4 	TimesIntoBackoff 	1325
scalar LocScenario.node[4].nic.mac1609_4 	SlotsBackoff 	1994
scalar LocScenario.node[4].nic.mac1609_4 	NumInternalContention 	0
scalar LocScenario.node[4].nic.mac1609_4 	totalBusyTime 	1.402205
scalar LocScenario.node[4].veinsmobility 	startTime 	4.9
scalar LocScenario.node[4].veinsmobility 	totalTime 	66.2
scalar LocScenario.node[4].veinsmobility 	stopTime 	71.192244947452
scalar LocScenario.node[4].veinsmobility 	minSpeed 	10.45003960008
scalar LocScenario.node[4].veinsmobility 	maxSpeed 	10.499997232482
scalar LocScenario.node[4].veinsmobility 	totalDistance 	696.44060652552
scalar LocScenario.node[4].veinsmobility 	totalCO2Emission 	114.20935482344
scalar LocScenario.node[40].appl 	generatedWSMs 	0
scalar LocScenario.node[40].appl 	receivedWSMs 	0
scalar LocScenario.node[40].appl 	generatedBSMs 	461
scalar LocScenario.node[40].appl 	receivedBSMs 	5940
scalar LocScenario.node[40].appl 	generatedWSAs 	0
scalar LocScenario.node[40].appl 	receivedWSAs 	0
scalar LocScenario.node[40].appl 	rmseGPS 	8.7411690107634
scalar LocScenario.node[40].appl 	rmseDRCP 	8.7411690107634
scalar LocScenario.node[40].appl 	timeOutage 	-71.157998083695
scalar LocScenario.node[40].nic.phy80211p 	busyTime 	0.026751838177957
scalar LocScenario.node[40].nic.mac1609_4 	ReceivedUnicastPackets 	0
scalar LocScenario.node[40].nic.mac1609_4 	ReceivedBroadcasts 	5940
scalar LocScenario.node[40].nic.mac1609_4 	SentPackets 	461
scalar LocScenario.node[40].nic.mac1609_4 	SNIRLostPackets 	0
scalar LocScenario.node[40].nic.mac1609_4 	RXTXLostPackets 	0
scalar LocScenario.node[40].nic.mac1609_4 	TotalLostPackets 	0
scalar LocScenario.node[40].nic.mac1609_4 	DroppedPacketsInMac 	0
scalar LocScenario.node[40].nic.mac1609_4 	TooLittleTime 	0
scalar LocScenario.node[40].nic.mac1609_4 	TimesIntoBackoff 	461
scalar LocScenario.node[40].nic.mac1609_4 	SlotsBackoff 	680
scalar LocScenario.node[40].nic.mac1609_4 	NumInternalContention 	0
scalar LocScenario.node[40].nic.mac1609_4 	totalBusyTime 	0.666165
scalar LocScenario.node[40].veinsmobility 	startTime 	48.1
scalar LocScenario.node[40].veinsmobility 	totalTime 	23
scalar LocScenario.node[40].veinsmobility 	stopTime 	71.192244947452
scalar LocScenario.node[40].veinsmobility 	minSpeed 	10.450135778706
scalar LocScenario.node[40].veinsmobility 	maxSpeed 	10.499989652284
scalar LocScenario.node[40].veinsmobility 	totalDistance 	241.02214612198
scalar LocScenario.node[40].veinsmobility 	totalCO2Emission 	39.599341295204
scalar LocScenario.node[42].appl 	generatedWSMs 	0
scalar LocScenario.node[42].appl 	receivedWSMs 	0
scalar LocScenario.node[42].appl 	generatedBSMs 	413
scalar LocScenario.node[42].appl 	receivedBSMs 	5094
scalar LocScenario.node[42].appl 	generatedWSAs 	0
scalar LocScenario.node[42].appl 	receivedWSAs 	0
scalar LocScenario.node[42].appl 	rmseGPS 	8.8540837068661
scalar LocScenario.node[42].appl 	rmseDRCP 	8.8540837068661
scalar LocScenario.node[42].appl 	timeOutage 	-71.127269145893
scalar LocScenario.node[42].nic.phy80211p 	busyTime 	0.025753416381512
scalar LocScenario.node[42].nic.mac1609_4 	ReceivedUnicastPackets 	0
scalar LocScenario.node[42].nic.mac1609_4 	ReceivedBroadcasts 	5094
scalar LocScenario.node[42].nic.mac1609_4 	SentPackets 	413
scalar LocScenario.node[42].nic.mac1609_4 	SNIRLostPackets 	30
scalar LocScenario.node[42].nic.mac1609_4 	RXTXLostPackets 	0
scalar LocScenario.node[42].nic.mac1609_4 	TotalLostPackets 	30
scalar LocScenario.node[42].nic.mac1609_4 	DroppedPacketsInMac 	0
scalar LocScenario.node[42].nic.mac1609_4 	TooLittleTime 	0
scalar LocScenario.node[42].nic.mac1609_4 	TimesIntoBackoff 	413
scalar LocScenario.node[42].nic.mac1609_4 	SlotsBackoff 	623
scalar LocScenario.node[42].nic.mac1609_4 	NumInternalContention 	0
scalar LocScenario.node[42].nic.mac1609_4 	totalBusyTime 	0.574701
scalar LocScenario.node[42].veinsmobility 	startTime 	50.5
scalar LocScenario.node[42].veinsmobility 	totalTime 	20.6
scalar LocScenario.node[42].veinsmobility 	stopTime 	71.192244947452
scalar LocScenario.node[42].veinsmobility 	minSpeed 	10.45021687051
scalar LocScenario.node[42].veinsmobility 	maxSpeed 	10.499772096635
scalar LocScenario.node[42].veinsmobility 	totalDistance 	215.82032818384
scalar LocScenario.node[42].veinsmobility 	totalCO2Emission 	35.252576466829
scalar LocScenario.node[44].appl 	generatedWSMs 	0
scalar LocScenario.node[44].appl 	receivedWSMs 	0
scalar LocScenario.node[44].appl 	generatedBSMs 	365
scalar LocScenario.node[44].appl 	receivedBSMs 	4297
scalar LocScenario.node[44].appl 	generatedWSAs 	0
scalar LocScenario.node[44].appl 	receivedWSAs 	0
scalar LocScenario.node[44].appl 	rmseGPS 	43.309778408424
scalar LocScenario.node[44].appl 	rmseDRCP 	4.2939774255215
scalar LocScenario.node[44].appl 	timeOutage 	11.3
scalar LocScenario.node[44].nic.phy80211p 	busyTime 	0.024601026352573
scalar LocScenario.node[44].nic.mac1609_4 	ReceivedUnicastPackets 	0
scalar LocScenario.node[44].nic.mac1609_4 	ReceivedBroadcasts 	4297
scalar LocScenario.node[44].nic.mac1609_4 	SentPackets 	365
scalar LocScenario.node[44].nic.mac1609_4 	SNIRLostPackets 	30
scalar LocScenario.node[44].nic.mac1609_4 	RXTXLostPackets 	0
scalar LocScenario.node[44].nic.mac1609_4 	TotalLostPackets 	30
scalar LocScenario.node[44].nic.mac1609_4 	DroppedPacketsInMac 	0
scalar LocScenario.node[44].nic.mac1609_4 	TooLittleTime 	0
scalar LocScenario.node[44].nic.mac1609_4 	TimesIntoBackoff 	365
scalar LocScenario.node[44].nic.mac1609_4 	SlotsBackoff 	595
scalar LocScenario.node[44].nic.mac1609_4 	NumInternalContention 	0
scalar LocScenario.node[44].nic.mac1609_4 	totalBusyTime 	0.486773
scalar LocScenario.node[44].veinsmobility 	startTime 	52.9
scalar LocScenario.node[44].veinsmobility 	totalTime 	18.2
scalar LocScenario.node[44].veinsmobility 	stopTime 	71.192244947452
scalar LocScenario.node[44].veinsmobility 	minSpeed 	10.450179714826
scalar LocScenario.node[44].veinsmobility 	maxSpeed 	10.499963665148
scalar LocScenario.node[44].veinsmobility 	totalDistance 	190.65959124925
scalar LocScenario.node[44].veinsmobility 	totalCO2Emission 	31.170873348987
scalar LocScenario.node[46].appl 	generatedWSMs 	0
scalar LocScenario.node[46].appl 	receivedWSMs 	0
scalar LocScenario.node[46].appl 	generatedBSMs 	317
scalar LocScenario.node[46].appl 	receivedBSMs 	3548
scalar LocScenario.node[46].appl 	generatedWSAs 	0
scalar LocScenario.node[46].appl 	receivedWSAs 	0
scalar LocScenario.node[46].appl 	rmseGPS 	8.5890660620995
scalar LocScenario.node[46].appl 	rmseDRCP 	8.5890660620995
scalar LocScenario.node[46].appl 	timeOutage 	-71.134544374328
scalar LocScenario.node[46].nic.phy80211p 	busyTime 	0.023421234773987
scalar LocScenario.node[46].nic.mac1609_4 	ReceivedUnicastPackets 	0
scalar LocScenario.node[46].nic.mac1609_4 	ReceivedBroadcasts 	3548
scalar LocScenario.node[46].nic.mac1609_4 	SentPackets 	317
scalar LocScenario.node[46].nic.mac1609_4 	SNIRLostPackets 	31
scalar LocScenario.node[46].nic.mac1609_4 	RXTXLostPackets 	0
scalar LocScenario.node[46].nic.mac1609_4 	TotalLostPackets 	31
scalar LocScenario.node[46].nic.mac1609_4 	DroppedPacketsInMac 	0
scalar LocScenario.node[46].nic.mac1609_4 	TooLittleTime 	0
scalar LocScenario.node[46].nic.mac1609_4 	TimesIntoBackoff 	317
scalar LocScenario.node[46].nic.mac1609_4 	SlotsBackoff 	457
scalar LocScenario.node[46].nic.mac1609_4 	NumInternalContention 	0
scalar LocScenario.node[46].nic.mac1609_4 	totalBusyTime 	0.403941
scalar LocScenario.node[46].veinsmobility 	startTime 	55.3
scalar LocScenario.node[46].veinsmobility 	totalTime 	15.8
scalar LocScenario.node[46].veinsmobility 	stopTime 	71.192244947452
scalar LocScenario.node[46].veinsmobility 	minSpeed 	10.450057258143
scalar LocScenario.node[46].veinsmobility 	maxSpeed 	10.499744161579
scalar LocScenario.node[46].veinsmobility 	totalDistance 	167.91047283738
scalar LocScenario.node[46].veinsmobility 	totalCO2Emission 	27.046935106418
scalar LocScenario.node[48].appl 	generatedWSMs 	0
scalar LocScenario.node[48].appl 	receivedWSMs 	0
scalar LocScenario.node[48].appl 	generatedBSMs 	269
scalar LocScenario.node[48].appl 	receivedBSMs 	2846
scalar LocScenario.node[48].appl 	generatedWSAs 	0
scalar LocScenario.node[48].appl 	receivedWSAs 	0
scalar LocScenario.node[48].appl 	rmseGPS 	9.3666664954364
scalar LocScenario.node[48].appl 	rmseDRCP 	9.3666664954364
scalar LocScenario.node[48].appl 	timeOutage 	-71.120629842626
scalar LocScenario.node[48].nic.phy80211p 	busyTime 	0.022184002822786
scalar LocScenario.node[48].nic.mac1609_4 	ReceivedUnicastPackets 	0
scalar LocScenario.node[48].nic.mac1609_4 	ReceivedBroadcasts 	2846
scalar LocScenario.node[48].nic.mac1609_4 	SentPackets 	269
scalar LocScenario.node[48].nic.mac1609_4 	SNIRLostPackets 	32
scalar LocScenario.node[48].nic.mac1609_4 	RXTXLostPackets 	0
scalar LocScenario.node[48].nic.mac1609_4 	TotalLostPackets 	32
scalar LocScenario.node[48].nic.mac1609_4 	DroppedPacketsInMac 	0
scalar LocScenario.node[48].nic.mac1609_4 	TooLittleTime 	0
scalar LocScenario.node[48].nic.mac1609_4 	TimesIntoBackoff 	269
scalar LocScenario.node[48].nic.mac1609_4 	SlotsBackoff 	393
scalar LocScenario.node[48].nic.mac1609_4 	NumInternalContention 	0
scalar LocScenario.node[48].nic.mac1609_4 	totalBusyTime 	0.325997
scalar LocScenario.node[48].veinsmobility 	startTime 	57.7
scalar LocScenario.node[48].veinsmobility 	totalTime 	13.4
scalar LocScenario.node[48].veinsmobility 	stopTime 	71.192244947452
scalar LocScenario.node[48].veinsmobility 	minSpeed 	10.450694210012
scalar LocScenario.node[48].veinsmobility 	maxSpeed 	10.499998998502
scalar LocScenario.node[48].veinsmobility 	totalDistance 	142.81428198283
scalar LocScenario.node[48].veinsmobility 	totalCO2Emission 	22.907080316714
scalar LocScenario.node[50].appl 	generatedWSMs 	0
scalar LocScenario.node[50].appl 	receivedWSMs 	0
scalar LocScenario.node[50].appl 	generatedBSMs 	221
scalar LocScenario.node[50].appl 	receivedBSMs 	2204
scalar LocScenario.node[50].appl 	generatedWSAs 	0
scalar LocScenario.node[50].appl 	receivedWSAs 	0
scalar LocScenario.node[50].appl 	rmseGPS 	9.163060800287
scalar LocScenario.node[50].appl 	rmseDRCP 	9.163060800287
scalar LocScenario.node[50].appl 	timeOutage 	-71.128937314614
scalar LocScenario.node[50].nic.phy80211p 	busyTime 	0.020945805028708
scalar LocScenario.node[50].nic.mac1609_4 	ReceivedUnicastPackets 	0
scalar LocScenario.node[50].nic.mac1609_4 	ReceivedBroadcasts 	2204
scalar LocScenario.node[50].nic.mac1609_4 	SentPackets 	221
scalar LocScenario.node[50].nic.mac1609_4 	SNIRLostPackets 	30
scalar LocScenario.node[50].nic.mac1609_4 	RXTXLostPackets 	0
scalar LocScenario.node[50].nic.mac1609_4 	TotalLostPackets 	30
scalar LocScenario.node[50].nic.mac1609_4 	DroppedPacketsInMac 	0
scalar LocScenario.node[50].nic.mac1609_4 	TooLittleTime 	0
scalar LocScenario.node[50].nic.mac1609_4 	TimesIntoBackoff 	221
scalar LocScenario.node[50].nic.mac1609_4 	SlotsBackoff 	354
scalar LocScenario.node[50].nic.mac1609_4 	NumInternalContention 	0
scalar LocScenario.node[50].nic.mac1609_4 	totalBusyTime 	0.253981
scalar LocScenario.node[50].veinsmobility 	startTime 	60.1
scalar LocScenario.node[50].veinsmobility 	totalTime 	11
scalar LocScenario.node[50].veinsmobility 	stopTime 	71.192244947452
scalar LocScenario.node[50].veinsmobility 	minSpeed 	10.450770337135
scalar LocScenario.node[50].veinsmobility 	maxSpeed 	10.499690114625
scalar LocScenario.node[50].veinsmobility 	totalDistance 	117.62305103895
scalar LocScenario.node[50].veinsmobility 	totalCO2Emission 	18.869533878148
scalar LocScenario.node[52].appl 	generatedWSMs 	0
scalar LocScenario.node[52].appl 	receivedWSMs 	0
scalar LocScenario.node[52].appl 	generatedBSMs 	173
scalar LocScenario.node[52].appl 	receivedBSMs 	1619
scalar LocScenario.node[52].appl 	generatedWSAs 	0
scalar LocScenario.node[52].appl 	receivedWSAs 	0
scalar LocScenario.node[52].appl 	rmseGPS 	8.7083900337646
scalar LocScenario.node[52].appl 	rmseDRCP 	8.7083900337646
scalar LocScenario.node[52].appl 	timeOutage 	-71.144904781878
scalar LocScenario.node[52].nic.phy80211p 	busyTime 	0.019562265102739
scalar LocScenario.node[52].nic.mac1609_4 	ReceivedUnicastPackets 	0
scalar LocScenario.node[52].nic.mac1609_4 	ReceivedBroadcasts 	1619
scalar LocScenario.node[52].nic.mac1609_4 	SentPackets 	173
scalar LocScenario.node[52].nic.mac1609_4 	SNIRLostPackets 	16
scalar LocScenario.node[52].nic.mac1609_4 	RXTXLostPackets 	0
scalar LocScenario.node[52].nic.mac1609_4 	TotalLostPackets 	16
scalar LocScenario.node[52].nic.mac1609_4 	DroppedPacketsInMac 	0
scalar LocScenario.node[52].nic.mac1609_4 	TooLittleTime 	0
scalar LocScenario.node[52].nic.mac1609_4 	TimesIntoBackoff 	173
scalar LocScenario.node[52].nic.mac1609_4 	SlotsBackoff 	267
scalar LocScenario.node[52].nic.mac1609_4 	NumInternalContention 	0
scalar LocScenario.node[52].nic.mac1609_4 	totalBusyTime 	0.186645
scalar LocScenario.node[52].veinsmobility 	startTime 	62.5
scalar LocScenario.node[52].veinsmobility 	totalTime 	8.6
scalar LocScenario.node[52].veinsmobility 	stopTime 	71.192244947452
scalar LocScenario.node[52].veinsmobility 	minSpeed 	10.45042458328
scalar LocScenario.node[52].veinsmobility 	maxSpeed 	10.499935147271
scalar LocScenario.node[52].veinsmobility 	totalDistance 	92.523906466614
scalar LocScenario.node[52].veinsmobility 	totalCO2Emission 	14.496484622033
scalar LocScenario.node[54].appl 	generatedWSMs 	0
scalar LocScenario.node[54].appl 	receivedWSMs 	0
scalar LocScenario.node[54].appl 	generatedBSMs 	125
scalar LocScenario.node[54].appl 	receivedBSMs 	1099
scalar LocScenario.node[54].appl 	generatedWSAs 	0
scalar LocScenario.node[54].appl 	receivedWSAs 	0
scalar LocScenario.node[54].appl 	rmseGPS 	8.4595492492023
scalar LocScenario.node[54].appl 	rmseDRCP 	8.4595492492023
scalar LocScenario.node[54].appl 	timeOutage 	-71.156476498651
scalar LocScenario.node[54].nic.phy80211p 	busyTime 	0.018412506341941
scalar LocScenario.node[54].nic.mac1609_4 	ReceivedUnicastPackets 	0
scalar LocScenario.node[54].nic.mac1609_4 	ReceivedBroadcasts 	1099
scalar LocScenario.node[54].nic.mac1609_4 	SentPackets 	125
scalar LocScenario.node[54].nic.mac1609_4 	SNIRLostPackets 	15
scalar LocScenario.node[54].nic.mac1609_4 	RXTXLostPackets 	0
scalar LocScenario.node[54].nic.mac1609_4 	TotalLostPackets 	15
scalar LocScenario.node[54].nic.mac1609_4 	DroppedPacketsInMac 	0
scalar LocScenario.node[54].nic.mac1609_4 	TooLittleTime 	0
scalar LocScenario.node[54].nic.mac1609_4 	TimesIntoBackoff 	125
scalar LocScenario.node[54].nic.mac1609_4 	SlotsBackoff 	193
scalar LocScenario.node[54].nic.mac1609_4 	NumInternalContention 	0
scalar LocScenario.node[54].nic.mac1609_4 	totalBusyTime 	0.127421
scalar LocScenario.node[54].veinsmobility 	startTime 	64.9
scalar LocScenario.node[54].veinsmobility 	totalTime 	6.2
scalar LocScenario.node[54].veinsmobility 	stopTime 	71.192244947452
scalar LocScenario.node[54].veinsmobility 	minSpeed 	10.451855096477
scalar LocScenario.node[54].veinsmobility 	maxSpeed 	10.49914805725
scalar LocScenario.node[54].veinsmobility 	totalDistance 	64.950900292565
scalar LocScenario.node[54].veinsmobility 	totalCO2Emission 	10.55931952369
scalar LocScenario.node[56].appl 	generatedWSMs 	0
scalar LocScenario.node[56].appl 	receivedWSMs 	0
scalar LocScenario.node[56].appl 	generatedBSMs 	77
scalar LocScenario.node[56].appl 	receivedBSMs 	638
scalar LocScenario.node[56].appl 	generatedWSAs 	0
scalar LocScenario.node[56].appl 	receivedWSAs 	0
scalar LocScenario.node[56].appl 	rmseGPS 	8.8894034532431
scalar LocScenario.node[56].appl 	rmseDRCP 	8.8894034532431
scalar LocScenario.node[56].appl 	timeOutage 	-71.152606907953
scalar LocScenario.node[56].nic.phy80211p 	busyTime 	0.017448028301625
scalar LocScenario.node[56].nic.mac1609_4 	ReceivedUnicastPackets 	0
scalar LocScenario.node[56].nic.mac1609_4 	ReceivedBroadcasts 	638
scalar LocScenario.node[56].nic.mac1609_4 	SentPackets 	77
scalar LocScenario.node[56].nic.mac1609_4 	SNIRLostPackets 	15
scalar LocScenario.node[56].nic.mac1609_4 	RXTXLostPackets 	0
scalar LocScenario.node[56].nic.mac1609_4 	TotalLostPackets 	15
scalar LocScenario.node[56].nic.mac1609_4 	DroppedPacketsInMac 	0
scalar LocScenario.node[56].nic.mac1609_4 	TooLittleTime 	0
scalar LocScenario.node[56].nic.mac1609_4 	TimesIntoBackoff 	77
scalar LocScenario.node[56].nic.mac1609_4 	SlotsBackoff 	116
scalar LocScenario.node[56].nic.mac1609_4 	NumInternalContention 	0
scalar LocScenario.node[56].nic.mac1609_4 	totalBusyTime 	0.074437
scalar LocScenario.node[56].veinsmobility 	startTime 	67.3
scalar LocScenario.node[56].veinsmobility 	totalTime 	3.8
scalar LocScenario.node[56].veinsmobility 	stopTime 	71.192244947452
scalar LocScenario.node[56].veinsmobility 	minSpeed 	10.453506816993
scalar LocScenario.node[56].veinsmobility 	maxSpeed 	10.499280258163
scalar LocScenario.node[56].veinsmobility 	totalDistance 	39.634925806853
scalar LocScenario.node[56].veinsmobility 	totalCO2Emission 	6.4378237505247
scalar LocScenario.node[58].appl 	generatedWSMs 	0
scalar LocScenario.node[58].appl 	receivedWSMs 	0
scalar LocScenario.node[58].appl 	generatedBSMs 	29
scalar LocScenario.node[58].appl 	receivedBSMs 	240
scalar LocScenario.node[58].appl 	generatedWSAs 	0
scalar LocScenario.node[58].appl 	receivedWSAs 	0
scalar LocScenario.node[58].appl 	rmseGPS 	8.2966182201017
scalar LocScenario.node[58].appl 	rmseDRCP 	8.2966182201017
scalar LocScenario.node[58].appl 	timeOutage 	-71.157950331992
scalar LocScenario.node[58].nic.phy80211p 	busyTime 	0.016726476469308
scalar LocScenario.node[58].nic.mac1609_4 	ReceivedUnicastPackets 	0
scalar LocScenario.node[58].nic.mac1609_4 	ReceivedBroadcasts 	240
scalar LocScenario.node[58].nic.mac1609_4 	SentPackets 	29
scalar LocScenario.node[58].nic.mac1609_4 	SNIRLostPackets 	0
scalar LocScenario.node[58].nic.mac1609_4 	RXTXLostPackets 	0
scalar LocScenario.node[58].nic.mac1609_4 	TotalLostPackets 	0
scalar LocScenario.node[58].nic.mac1609_4 	DroppedPacketsInMac 	0
scalar LocScenario.node[58].nic.mac1609_4 	TooLittleTime 	0
scalar LocScenario.node[58].nic.mac1609_4 	TimesIntoBackoff 	29
scalar LocScenario.node[58].nic.mac1609_4 	SlotsBackoff 	51
scalar LocScenario.node[58].nic.mac1609_4 	NumInternalContention 	0
scalar LocScenario.node[58].nic.mac1609_4 	totalBusyTime 	0.028005
scalar LocScenario.node[58].veinsmobility 	startTime 	69.7
scalar LocScenario.node[58].veinsmobility 	totalTime 	1.4
scalar LocScenario.node[58].veinsmobility 	stopTime 	71.192244947452
scalar LocScenario.node[58].veinsmobility 	minSpeed 	10.452894313843
scalar LocScenario.node[58].veinsmobility 	maxSpeed 	10.498172980582
scalar LocScenario.node[58].veinsmobility 	totalDistance 	14.668699918113
scalar LocScenario.node[58].veinsmobility 	totalCO2Emission 	2.2309618289539
scalar LocScenario.node[6].appl 	generatedWSMs 	0
scalar LocScenario.node[6].appl 	receivedWSMs 	0
scalar LocScenario.node[6].appl 	generatedBSMs 	1276
scalar LocScenario.node[6].appl 	receivedBSMs 	12949
scalar LocScenario.node[6].appl 	generatedWSAs 	0
scalar LocScenario.node[6].appl 	receivedWSAs 	0
scalar LocScenario.node[6].appl 	rmseGPS 	46.986189312605
scalar LocScenario.node[6].appl 	rmseDRCP 	10.570515732037
scalar LocScenario.node[6].appl 	timeOutage 	21.6
scalar LocScenario.node[6].nic.phy80211p 	busyTime 	0.021077612801176
scalar LocScenario.node[6].nic.mac1609_4 	ReceivedUnicastPackets 	0
scalar LocScenario.node[6].nic.mac1609_4 	ReceivedBroadcasts 	12949
scalar LocScenario.node[6].nic.mac1609_4 	SentPackets 	1276
scalar LocScenario.node[6].nic.mac1609_4 	SNIRLostPackets 	0
scalar LocScenario.node[6].nic.mac1609_4 	RXTXLostPackets 	0
scalar LocScenario.node[6].nic.mac1609_4 	TotalLostPackets 	0
scalar LocScenario.node[6].nic.mac1609_4 	DroppedPacketsInMac 	0
scalar LocScenario.node[6].nic.mac1609_4 	TooLittleTime 	0
scalar LocScenario.node[6].nic.mac1609_4 	TimesIntoBackoff 	1276
scalar LocScenario.node[6].nic.mac1609_4 	SlotsBackoff 	1906
scalar LocScenario.node[6].nic.mac1609_4 	NumInternalContention 	0
scalar LocScenario.node[6].nic.mac1609_4 	totalBusyTime 	1.480676
scalar LocScenario.node[6].veinsmobility 	startTime 	7.3
scalar LocScenario.node[6].veinsmobility 	totalTime 	63.8
scalar LocScenario.node[6].veinsmobility 	stopTime 	71.192244947452
scalar LocScenario.node[6].veinsmobility 	minSpeed 	10.450030720793
scalar LocScenario.node[6].veinsmobility 	maxSpeed 	10.499893730227
scalar LocScenario.node[6].veinsmobility 	totalDistance 	667.66650176123
scalar LocScenario.node[6].veinsmobility 	totalCO2Emission 	109.97441502846
scalar LocScenario.node[8].appl 	generatedWSMs 	0
scalar LocScenario.node[8].appl 	receivedWSMs 	0
scalar LocScenario.node[8].appl 	generatedBSMs 	1229
scalar LocScenario.node[8].appl 	receivedBSMs 	13592
scalar LocScenario.node[8].appl 	generatedWSAs 	0
scalar LocScenario.node[8].appl 	receivedWSAs 	0
scalar LocScenario.node[8].appl 	rmseGPS 	129.47119914368
scalar LocScenario.node[8].appl 	rmseDRCP 	5.7301724375788
scalar LocScenario.node[8].appl 	timeOutage 	38.7
scalar LocScenario.node[8].nic.phy80211p 	busyTime 	0.022987744246585
scalar LocScenario.node[8].nic.mac1609_4 	ReceivedUnicastPackets 	0
scalar LocScenario.node[8].nic.mac1609_4 	ReceivedBroadcasts 	13592
scalar LocScenario.node[8].nic.mac1609_4 	SentPackets 	1229
scalar LocScenario.node[8].nic.mac1609_4 	SNIRLostPackets 	0
scalar LocScenario.node[8].nic.mac1609_4 	RXTXLostPackets 	0
scalar LocScenario.node[8].nic.mac1609_4 	TotalLostPackets 	0
scalar LocScenario.node[8].nic.mac1609_4 	DroppedPacketsInMac 	0
scalar LocScenario.node[8].nic.mac1609_4 	TooLittleTime 	0
scalar LocScenario.node[8].nic.mac1609_4 	TimesIntoBackoff 	1229
scalar LocScenario.node[8].nic.mac1609_4 	SlotsBackoff 	1848
scalar LocScenario.node[8].nic.mac1609_4 	NumInternalContention 	0
scalar LocScenario.node[8].nic.mac1609_4 	totalBusyTime 	1.542613
scalar LocScenario.node[8].veinsmobility 	startTime 	9.7
scalar LocScenario.node[8].veinsmobility 	totalTime 	61.4
scalar LocScenario.node[8].veinsmobility 	stopTime 	71.192244947452
scalar LocScenario.node[8].veinsmobility 	minSpeed 	10.450001799117
scalar LocScenario.node[8].veinsmobility 	maxSpeed 	10.499971519224
scalar LocScenario.node[8].veinsmobility 	totalDistance 	645.96725124836
scalar LocScenario.node[8].veinsmobility 	totalCO2Emission 	105.9335533936
scalar LocScenario.node[10].appl 	generatedWSMs 	0
scalar LocScenario.node[10].appl 	receivedWSMs 	0
scalar LocScenario.node[10].appl 	generatedBSMs 	1180
scalar LocScenario.node[10].appl 	receivedBSMs 	14188
scalar LocScenario.node[10].appl 	generatedWSAs 	0
scalar LocScenario.node[10].appl 	receivedWSAs 	0
scalar LocScenario.node[10].appl 	rmseGPS 	53.160520177358
scalar LocScenario.node[10].appl 	rmseDRCP 	8.5825212140171
scalar LocScenario.node[10].appl 	timeOutage 	22.5
scalar LocScenario.node[10].nic.phy80211p 	busyTime 	0.024970315501003
scalar LocScenario.node[10].nic.mac1609_4 	ReceivedUnicastPackets 	0
scalar LocScenario.node[10].nic.mac1609_4 	ReceivedBroadcasts 	14188
scalar LocScenario.node[10].nic.mac1609_4 	SentPackets 	1180
scalar LocScenario.node[10].nic.mac1609_4 	SNIRLostPackets 	0
scalar LocScenario.node[10].nic.mac1609_4 	RXTXLostPackets 	0
scalar LocScenario.node[10].nic.mac1609_4 	TotalLostPackets 	0
scalar LocScenario.node[10].nic.mac1609_4 	DroppedPacketsInMac 	0
scalar LocScenario.node[10].nic.mac1609_4 	TooLittleTime 	0
scalar LocScenario.node[10].nic.mac1609_4 	TimesIntoBackoff 	1180
scalar LocScenario.node[10].nic.mac1609_4 	SlotsBackoff 	1736
scalar LocScenario.node[10].nic.mac1609_4 	NumInternalContention 	0
scalar LocScenario.node[10].nic.mac1609_4 	totalBusyTime 	1.599452
scalar LocScenario.node[10].veinsmobility 	startTime 	12.1
scalar LocScenario.node[10].veinsmobility 	totalTime 	59
scalar LocScenario.node[10].veinsmobility 	stopTime 	71.192244947452
scalar LocScenario.node[10].veinsmobility 	minSpeed 	10.450141019491
scalar LocScenario.node[10].veinsmobility 	maxSpeed 	10.499975451687
scalar LocScenario.node[10].veinsmobility 	totalDistance 	620.75023502242
scalar LocScenario.node[10].veinsmobility 	totalCO2Emission 	101.5638994162
scalar LocScenario.node[12].appl 	generatedWSMs 	0
scalar LocScenario.node[12].appl 	receivedWSMs 	0
scalar LocScenario.node[12].appl 	generatedBSMs 	1133
scalar LocScenario.node[12].appl 	receivedBSMs 	14688
scalar LocScenario.node[12].appl 	generatedWSAs 	0
scalar LocScenario.node[12].appl 	receivedWSAs 	0
scalar LocScenario.node[12].appl 	rmseGPS 	36.29904897142
scalar LocScenario.node[12].appl 	rmseDRCP 	7.9648740421322
scalar LocScenario.node[12].appl 	timeOutage 	17.6
scalar LocScenario.node[12].nic.phy80211p 	busyTime 	0.026944637691034
scalar LocScenario.node[12].nic.mac1609_4 	ReceivedUnicastPackets 	0
scalar LocScenario.node[12].nic.mac1609_4 	ReceivedBroadcasts 	14688
scalar LocScenario.node[12].nic.mac1609_4 	SentPackets 	1133
scalar LocScenario.node[12].nic.mac1609_4 	SNIRLostPackets 	0
scalar LocScenario.node[12].nic.mac1609_4 	RXTXLostPackets 	0
scalar LocScenario.node[12].nic.mac1609_4 	TotalLostPackets 	0
scalar LocScenario.node[12].nic.mac1609_4 	DroppedPacketsInMac 	0
scalar LocScenario.node[12].nic.mac1609_4 	TooLittleTime 	0
scalar LocScenario.node[12].nic.mac1609_4 	TimesIntoBackoff 	1133
scalar LocScenario.node[12].nic.mac1609_4 	SlotsBackoff 	1646
scalar LocScenario.node[12].nic.mac1609_4 	NumInternalContention 	0
scalar LocScenario.node[12].nic.mac1609_4 	totalBusyTime 	1.646517
scalar LocScenario.node[12].veinsmobility 	startTime 	14.5
scalar LocScenario.node[12].veinsmobility 	totalTime 	56.6
scalar LocScenario.node[12].veinsmobility 	stopTime 	71.192244947452
scalar LocScenario.node[12].veinsmobility 	minSpeed 	10.450168547989
scalar LocScenario.node[12].veinsmobility 	maxSpeed 	10.499972701457
scalar LocScenario.node[12].veinsmobility 	totalDistance 	597.93540718346
scalar LocScenario.node[12].veinsmobility 	totalCO2Emission 	97.514852836727
scalar LocScenario.node[14].appl 	generatedWSMs 	0
scalar LocScenario.node[14].appl 	receivedWSMs 	0
scalar LocScenario.node[14].appl 	generatedBSMs 	1085
scalar LocScenario.node[14].appl 	receivedBSMs 	15018
scalar LocScenario.node[14].appl 	generatedWSAs 	0
scalar LocScenario.node[14].appl 	receivedWSAs 	0
scalar LocScenario.node[14].appl 	rmseGPS 	69.858155609914
scalar LocScenario.node[14].appl 	rmseDRCP 	7.705645545543
scalar LocScenario.node[14].appl 	timeOutage 	26.7
scalar LocScenario.node[14].nic.phy80211p 	busyTime 	0.028787021084009
scalar LocScenario.node[14].nic.mac1609_4 	ReceivedUnicastPackets 	0
scalar LocScenario.node[14].nic.mac1609_4 	ReceivedBroadcasts 	15018
scalar LocScenario.node[14].nic.mac1609_4 	SentPackets 	1085
scalar LocScenario.node[14].nic.mac1609_4 	SNIRLostPackets 	10
scalar LocScenario.node[14].nic.mac1609_4 	RXTXLostPackets 	0
scalar LocScenario.node[14].nic.mac1609_4 	TotalLostPackets 	10
scalar LocScenario.node[14].nic.mac1609_4 	DroppedPacketsInMac 	0
scalar LocScenario.node[14].nic.mac1609_4 	TooLittleTime 	0
scalar LocScenario.node[14].nic.mac1609_4 	TimesIntoBackoff 	1085
scalar LocScenario.node[14].nic.mac1609_4 	SlotsBackoff 	1617
scalar LocScenario.node[14].nic.mac1609_4 	NumInternalContention 	0
scalar LocScenario.node[14].nic.mac1609_4 	totalBusyTime 	1.675797
scalar LocScenario.node[14].veinsmobility 	startTime 	16.9
scalar LocScenario.node[14].veinsmobility 	totalTime 	54.2
scalar LocScenario.node[14].veinsmobility 	stopTime 	71.192244947452
scalar LocScenario.node[14].veinsmobility 	minSpeed 	10.450340175815
scalar LocScenario.node[14].veinsmobility 	maxSpeed 	10.499957453134
scalar LocScenario.node[14].veinsmobility 	totalDistance 	572.6092254369
scalar LocScenario.node[14].veinsmobility 	totalCO2Emission 	93.403595713052
scalar LocScenario.node[16].appl 	generatedWSMs 	0
scalar LocScenario.node[16].appl 	receivedWSMs 	0
scalar LocScenario.node[16].appl 	generatedBSMs 	1037
scalar LocScenario.node[16].appl 	receivedBSMs 	15314
scalar LocScenario.node[16].appl 	generatedWSAs 	0
scalar LocScenario.node[16].appl 	receivedWSAs 	0
scalar LocScenario.node[16].appl 	rmseGPS 	79.429442351566
scalar LocScenario.node[16].appl 	rmseDRCP 	7.5099940096579
scalar LocScenario.node[16].appl 	timeOutage 	28
scalar LocScenario.node[16].nic.phy80211p 	busyTime 	0.03071164104799
scalar LocScenario.node[16].nic.mac1609_4 	ReceivedUnicastPackets 	0
scalar LocScenario.node[16].nic.mac1609_4 	ReceivedBroadcasts 	15314
scalar LocScenario.node[16].nic.mac1609_4 	SentPackets 	1037
scalar LocScenario.node[16].nic.mac1609_4 	SNIRLostPackets 	10
scalar LocScenario.node[16].nic.mac1609_4 	RXTXLostPackets 	0
scalar LocScenario.node[16].nic.mac1609_4 	TotalLostPackets 	10
scalar LocScenario.node[16].nic.mac1609_4 	DroppedPacketsInMac 	0
scalar LocScenario.node[16].nic.mac1609_4 	TooLittleTime 	0
scalar LocScenario.node[16].nic.mac1609_4 	TimesIntoBackoff 	1037
scalar LocScenario.node[16].nic.mac1609_4 	SlotsBackoff 	1537
scalar LocScenario.node[16].nic.mac1609_4 	NumInternalContention 	0
scalar LocScenario.node[16].nic.mac1609_4 	totalBusyTime 	1.701541
scalar LocScenario.node[16].veinsmobility 	startTime 	19.3
scalar LocScenario.node[16].veinsmobility 	totalTime 	51.8
scalar LocScenario.node[16].veinsmobility 	stopTime 	71.192244947452
scalar LocScenario.node[16].veinsmobility 	minSpeed 	10.450128193724
scalar LocScenario.node[16].veinsmobility 	maxSpeed 	10.499996315152
scalar LocScenario.node[16].veinsmobility 	totalDistance 	545.13267999063
scalar LocScenario.node[16].veinsmobility 	totalCO2Emission 	89.362244946492
scalar LocScenario.node[18].appl 	generatedWSMs 	0
scalar LocScenario.node[18].appl 	receivedWSMs 	0
scalar LocScenario.node[18].appl 	generatedBSMs 	989
scalar LocScenario.node[18].appl 	receivedBSMs 	15064
scalar LocScenario.node[18].appl 	generatedWSAs 	0
scalar LocScenario.node[18].appl 	receivedWSAs 	0
scalar LocScenario.node[18].appl 	rmseGPS 	52.017232086547
scalar LocScenario.node[18].appl 	rmseDRCP 	7.7371156997468
scalar LocScenario.node[18].appl 	timeOutage 	20
scalar LocScenario.node[18].nic.phy80211p 	busyTime 	0.031654575412045
scalar LocScenario.node[18].nic.mac1609_4 	ReceivedUnicastPackets 	0
scalar LocScenario.node[18].nic.mac1609_4 	ReceivedBroadcasts 	15064
scalar LocScenario.node[18].nic.mac1609_4 	SentPackets 	989
scalar LocScenario.node[18].nic.mac1609_4 	SNIRLostPackets 	0
scalar LocScenario.node[18].nic.mac1609_4 	RXTXLostPackets 	10
scalar LocScenario.node[18].nic.mac1609_4 	TotalLostPackets 	10
scalar LocScenario.node[18].nic.mac1609_4 	DroppedPacketsInMac 	0
scalar LocScenario.node[18].nic.mac1609_4 	TooLittleTime 	0
scalar LocScenario.node[18].nic.mac1609_4 	TimesIntoBackoff 	1072
scalar LocScenario.node[18].nic.mac1609_4 	SlotsBackoff 	1591
scalar LocScenario.node[18].nic.mac1609_4 	NumInternalContention 	0
scalar LocScenario.node[18].nic.mac1609_4 	totalBusyTime 	1.670501
scalar LocScenario.node[18].veinsmobility 	startTime 	21.7
scalar LocScenario.node[18].veinsmobility 	totalTime 	49.4
scalar LocScenario.node[18].veinsmobility 	stopTime 	71.192244947452
scalar LocScenario.node[18].veinsmobility 	minSpeed 	10.450083497656
scalar LocScenario.node[18].veinsmobility 	maxSpeed 	10.499829085486
scalar LocScenario.node[18].veinsmobility 	totalDistance 	519.91846000753
scalar LocScenario.node[18].veinsmobility 	totalCO2Emission 	84.891044316575
scalar LocScenario.node[1].appl 	generatedWSMs 	0
scalar LocScenario.node[1].appl 	receivedWSMs 	0
scalar LocScenario.node[1].appl 	generatedBSMs 	1397
scalar LocScenario.node[1].appl 	receivedBSMs 	9920
scalar LocScenario.node[1].appl 	generatedWSAs 	0
scalar LocScenario.node[1].appl 	receivedWSAs 	0
scalar LocScenario.node[1].appl 	rmseGPS 	94.965770713213
scalar LocScenario.node[1].appl 	rmseDRCP 	7.9558639832399
scalar LocScenario.node[1].appl 	timeOutage 	35.3
scalar LocScenario.node[1].nic.phy80211p 	busyTime 	0.014511850072572
scalar LocScenario.node[1].nic.mac1609_4 	ReceivedUnicastPackets 	0
scalar LocScenario.node[1].nic.mac1609_4 	ReceivedBroadcasts 	9920
scalar LocScenario.node[1].nic.mac1609_4 	SentPackets 	1397
scalar LocScenario.node[1].nic.mac1609_4 	SNIRLostPackets 	0
scalar LocScenario.node[1].nic.mac1609_4 	RXTXLostPackets 	0
scalar LocScenario.node[1].nic.mac1609_4 	TotalLostPackets 	0
scalar LocScenario.node[1].nic.mac1609_4 	DroppedPacketsInMac 	0
scalar LocScenario.node[1].nic.mac1609_4 	TooLittleTime 	0
scalar LocScenario.node[1].nic.mac1609_4 	TimesIntoBackoff 	1397
scalar LocScenario.node[1].nic.mac1609_4 	SlotsBackoff 	2108
scalar LocScenario.node[1].nic.mac1609_4 	NumInternalContention 	0
scalar LocScenario.node[1].nic.mac1609_4 	totalBusyTime 	1.178365
scalar LocScenario.node[1].veinsmobility 	startTime 	0.1
scalar LocScenario.node[1].veinsmobility 	totalTime 	71
scalar LocScenario.node[1].veinsmobility 	stopTime 	71.192244947452
scalar LocScenario.node[1].veinsmobility 	minSpeed 	10.450003442704
scalar LocScenario.node[1].veinsmobility 	maxSpeed 	10.499954835791
scalar LocScenario.node[1].veinsmobility 	totalDistance 	747.08091219796
scalar LocScenario.node[1].veinsmobility 	totalCO2Emission 	122.36040114089
scalar LocScenario.node[3].appl 	generatedWSMs 	0
scalar LocScenario.node[3].appl 	receivedWSMs 	0
scalar LocScenario.node[3].appl 	generatedBSMs 	1373
scalar LocScenario.node[3].appl 	receivedBSMs 	10857
scalar LocScenario.node[3].appl 	generatedWSAs 	0
scalar LocScenario.node[3].appl 	receivedWSAs 	0
scalar LocScenario.node[3].appl 	rmseGPS 	11.115455726528
scalar LocScenario.node[3].appl 	rmseDRCP 	9.6678657146067
scalar LocScenario.node[3].appl 	timeOutage 	6.5
scalar LocScenario.node[3].nic.phy80211p 	busyTime 	0.016437488698525
scalar LocScenario.node[3].nic.mac1609_4 	ReceivedUnicastPackets 	0
scalar LocScenario.node[3].nic.mac1609_4 	ReceivedBroadcasts 	10857
scalar LocScenario.node[3].nic.mac1609_4 	SentPackets 	1373
scalar LocScenario.node[3].nic.mac1609_4 	SNIRLostPackets 	0
scalar LocScenario.node[3].nic.mac1609_4 	RXTXLostPackets 	0
scalar LocScenario.node[3].nic.mac1609_4 	TotalLostPackets 	0
scalar LocScenario.node[3].nic.mac1609_4 	DroppedPacketsInMac 	0
scalar LocScenario.node[3].nic.mac1609_4 	TooLittleTime 	0
scalar LocScenario.node[3].nic.mac1609_4 	TimesIntoBackoff 	1373
scalar LocScenario.node[3].nic.mac1609_4 	SlotsBackoff 	2090
scalar LocScenario.node[3].nic.mac1609_4 	NumInternalContention 	0
scalar LocScenario.node[3].nic.mac1609_4 	totalBusyTime 	1.273293
scalar LocScenario.node[3].veinsmobility 	startTime 	2.5
scalar LocScenario.node[3].veinsmobility 	totalTime 	68.6
scalar LocScenario.node[3].veinsmobility 	stopTime 	71.192244947452
scalar LocScenario.node[3].veinsmobility 	minSpeed 	10.45023502172
scalar LocScenario.node[3].veinsmobility 	maxSpeed 	10.499910899089
scalar LocScenario.node[3].veinsmobility 	totalDistance 	721.99390019199
scalar LocScenario.node[3].veinsmobility 	totalCO2Emission 	118.24101865603
scalar LocScenario.node[21].appl 	generatedWSMs 	0
scalar LocScenario.node[21].appl 	receivedWSMs 	0
scalar LocScenario.node[21].appl 	generatedBSMs 	941
scalar LocScenario.node[21].appl 	receivedBSMs 	13343
scalar LocScenario.node[21].appl 	generatedWSAs 	0
scalar LocScenario.node[21].appl 	receivedWSAs 	0
scalar LocScenario.node[21].appl 	rmseGPS 	9.1726550184248
scalar LocScenario.node[21].appl 	rmseDRCP 	9.1726550184248
scalar LocScenario.node[21].appl 	timeOutage 	-71.183317447943
scalar LocScenario.node[21].nic.phy80211p 	busyTime 	0.029849160972658
scalar LocScenario.node[21].nic.mac1609_4 	ReceivedUnicastPackets 	0
scalar LocScenario.node[21].nic.mac1609_4 	ReceivedBroadcasts 	13343
scalar LocScenario.node[21].nic.mac1609_4 	SentPackets 	941
scalar LocScenario.node[21].nic.mac1609_4 	SNIRLostPackets 	172
scalar LocScenario.node[21].nic.mac1609_4 	RXTXLostPackets 	0
scalar LocScenario.node[21].nic.mac1609_4 	TotalLostPackets 	172
scalar LocScenario.node[21].nic.mac1609_4 	DroppedPacketsInMac 	0
scalar LocScenario.node[21].nic.mac1609_4 	TooLittleTime 	0
scalar LocScenario.node[21].nic.mac1609_4 	TimesIntoBackoff 	941
scalar LocScenario.node[21].nic.mac1609_4 	SlotsBackoff 	1311
scalar LocScenario.node[21].nic.mac1609_4 	NumInternalContention 	0
scalar LocScenario.node[21].nic.mac1609_4 	totalBusyTime 	1.486477
scalar LocScenario.node[21].veinsmobility 	startTime 	24.1
scalar LocScenario.node[21].veinsmobility 	totalTime 	47
scalar LocScenario.node[21].veinsmobility 	stopTime 	71.192244947452
scalar LocScenario.node[21].veinsmobility 	minSpeed 	10.450252560247
scalar LocScenario.node[21].veinsmobility 	maxSpeed 	10.499944190844
scalar LocScenario.node[21].veinsmobility 	totalDistance 	490.9688380267
scalar LocScenario.node[21].veinsmobility 	totalCO2Emission 	80.80203454202
scalar LocScenario.node[23].appl 	generatedWSMs 	0
scalar LocScenario.node[23].appl 	receivedWSMs 	0
scalar LocScenario.node[23].appl 	generatedBSMs 	893
scalar LocScenario.node[23].appl 	receivedBSMs 	12681
scalar LocScenario.node[23].appl 	generatedWSAs 	0
scalar LocScenario.node[23].appl 	receivedWSAs 	0
scalar LocScenario.node[23].appl 	rmseGPS 	8.9778576837086
scalar LocScenario.node[23].appl 	rmseDRCP 	8.9778576837086
scalar LocScenario.node[23].appl 	timeOutage 	-71.114652454411
scalar LocScenario.node[23].nic.phy80211p 	busyTime 	0.029511339194328
scalar LocScenario.node[23].nic.mac1609_4 	ReceivedUnicastPackets 	0
scalar LocScenario.node[23].nic.mac1609_4 	ReceivedBroadcasts 	12681
scalar LocScenario.node[23].nic.mac1609_4 	SentPackets 	893
scalar LocScenario.node[23].nic.mac1609_4 	SNIRLostPackets 	0
scalar LocScenario.node[23].nic.mac1609_4 	RXTXLostPackets 	0
scalar LocScenario.node[23].nic.mac1609_4 	TotalLostPackets 	0
scalar LocScenario.node[23].nic.mac1609_4 	DroppedPacketsInMac 	0
scalar LocScenario.node[23].nic.mac1609_4 	TooLittleTime 	0
scalar LocScenario.node[23].nic.mac1609_4 	TimesIntoBackoff 	893
scalar LocScenario.node[23].nic.mac1609_4 	SlotsBackoff 	1390
scalar LocScenario.node[23].nic.mac1609_4 	NumInternalContention 	0
scalar LocScenario.node[23].nic.mac1609_4 	totalBusyTime 	1.412589
scalar LocScenario.node[23].veinsmobility 	startTime 	26.5
scalar LocScenario.node[23].veinsmobility 	totalTime 	44.6
scalar LocScenario.node[23].veinsmobility 	stopTime 	71.192244947452
scalar LocScenario.node[23].veinsmobility 	minSpeed 	10.450034264626
scalar LocScenario.node[23].veinsmobility 	maxSpeed 	10.499913108384
scalar LocScenario.node[23].veinsmobility 	totalDistance 	468.30405485239
scalar LocScenario.node[23].veinsmobility 	totalCO2Emission 	76.571166788767
scalar LocScenario.node[25].appl 	generatedWSMs 	0
scalar LocScenario.node[25].appl 	receivedWSMs 	0
scalar LocScenario.node[25].appl 	generatedBSMs 	845
scalar LocScenario.node[25].appl 	receivedBSMs 	11842
scalar LocScenario.node[25].appl 	generatedWSAs 	0
scalar LocScenario.node[25].appl 	receivedWSAs 	0
scalar LocScenario.node[25].appl 	rmseGPS 	12.525124059842
scalar LocScenario.node[25].appl 	rmseDRCP 	8.3904863943316
scalar LocScenario.node[25].appl 	timeOutage 	6.4
scalar LocScenario.node[25].nic.phy80211p 	busyTime 	0.029122880602118
scalar LocScenario.node[25].nic.mac1609_4 	ReceivedUnicastPackets 	0
scalar LocScenario.node[25].nic.mac1609_4 	ReceivedBroadcasts 	11842
scalar LocScenario.node[25].nic.mac1609_4 	SentPackets 	845
scalar LocScenario.node[25].nic.mac1609_4 	SNIRLostPackets 	1
scalar LocScenario.node[25].nic.mac1609_4 	RXTXLostPackets 	0
scalar LocScenario.node[25].nic.mac1609_4 	TotalLostPackets 	1
scalar LocScenario.node[25].nic.mac1609_4 	DroppedPacketsInMac 	0
scalar LocScenario.node[25].nic.mac1609_4 	TooLittleTime 	0
scalar LocScenario.node[25].nic.mac1609_4 	TimesIntoBackoff 	845
scalar LocScenario.node[25].nic.mac1609_4 	SlotsBackoff 	1280
scalar LocScenario.node[25].nic.mac1609_4 	NumInternalContention 	0
scalar LocScenario.node[25].nic.mac1609_4 	totalBusyTime 	1.320397
scalar LocScenario.node[25].veinsmobility 	startTime 	28.9
scalar LocScenario.node[25].veinsmobility 	totalTime 	42.2
scalar LocScenario.node[25].veinsmobility 	stopTime 	71.192244947452
scalar LocScenario.node[25].veinsmobility 	minSpeed 	10.450002169271
scalar LocScenario.node[25].veinsmobility 	maxSpeed 	10.49996719819
scalar LocScenario.node[25].veinsmobility 	totalDistance 	443.150422195
scalar LocScenario.node[25].veinsmobility 	totalCO2Emission 	72.881944251898
scalar LocScenario.node[27].appl 	generatedWSMs 	0
scalar LocScenario.node[27].appl 	receivedWSMs 	0
scalar LocScenario.node[27].appl 	generatedBSMs 	797
scalar LocScenario.node[27].appl 	receivedBSMs 	10730
scalar LocScenario.node[27].appl 	generatedWSAs 	0
scalar LocScenario.node[27].appl 	receivedWSAs 	0
scalar LocScenario.node[27].appl 	rmseGPS 	8.8484397503902
scalar LocScenario.node[27].appl 	rmseDRCP 	8.9066118553741
scalar LocScenario.node[27].appl 	timeOutage 	1
scalar LocScenario.node[27].nic.phy80211p 	busyTime 	0.028838888398372
scalar LocScenario.node[27].nic.mac1609_4 	ReceivedUnicastPackets 	0
scalar LocScenario.node[27].nic.mac1609_4 	ReceivedBroadcasts 	10730
scalar LocScenario.node[27].nic.mac1609_4 	SentPackets 	797
scalar LocScenario.node[27].nic.mac1609_4 	SNIRLostPackets 	332
scalar LocScenario.node[27].nic.mac1609_4 	RXTXLostPackets 	0
scalar LocScenario.node[27].nic.mac1609_4 	TotalLostPackets 	332
scalar LocScenario.node[27].nic.mac1609_4 	DroppedPacketsInMac 	0
scalar LocScenario.node[27].nic.mac1609_4 	TooLittleTime 	0
scalar LocScenario.node[27].nic.mac1609_4 	TimesIntoBackoff 	797
scalar LocScenario.node[27].nic.mac1609_4 	SlotsBackoff 	1250
scalar LocScenario.node[27].nic.mac1609_4 	NumInternalContention 	0
scalar LocScenario.node[27].nic.mac1609_4 	totalBusyTime 	1.218013
scalar LocScenario.node[27].veinsmobility 	startTime 	31.3
scalar LocScenario.node[27].veinsmobility 	totalTime 	39.8
scalar LocScenario.node[27].veinsmobility 	stopTime 	71.192244947452
scalar LocScenario.node[27].veinsmobility 	minSpeed 	10.450002551789
scalar LocScenario.node[27].veinsmobility 	maxSpeed 	10.499992481235
scalar LocScenario.node[27].veinsmobility 	totalDistance 	418.04385038147
scalar LocScenario.node[27].veinsmobility 	totalCO2Emission 	68.479389268844
scalar LocScenario.node[29].appl 	generatedWSMs 	0
scalar LocScenario.node[29].appl 	receivedWSMs 	0
scalar LocScenario.node[29].appl 	generatedBSMs 	749
scalar LocScenario.node[29].appl 	receivedBSMs 	9897
scalar LocScenario.node[29].appl 	generatedWSAs 	0
scalar LocScenario.node[29].appl 	receivedWSAs 	0
scalar LocScenario.node[29].appl 	rmseGPS 	9.0956099612606
scalar LocScenario.node[29].appl 	rmseDRCP 	9.0956099612606
scalar LocScenario.node[29].appl 	timeOutage 	-71.148046401213
scalar LocScenario.node[29].nic.phy80211p 	busyTime 	0.028598980976008
scalar LocScenario.node[29].nic.mac1609_4 	ReceivedUnicastPackets 	0
scalar LocScenario.node[29].nic.mac1609_4 	ReceivedBroadcasts 	9897
scalar LocScenario.node[29].nic.mac1609_4 	SentPackets 	749
scalar LocScenario.node[29].nic.mac1609_4 	SNIRLostPackets 	412
scalar LocScenario.node[29].nic.mac1609_4 	RXTXLostPackets 	0
scalar LocScenario.node[29].nic.mac1609_4 	TotalLostPackets 	412
scalar LocScenario.node[29].nic.mac1609_4 	DroppedPacketsInMac 	0
scalar LocScenario.node[29].nic.mac1609_4 	TooLittleTime 	0
scalar LocScenario.node[29].nic.mac1609_4 	TimesIntoBackoff 	765
scalar LocScenario.node[29].nic.mac1609_4 	SlotsBackoff 	1170
scalar LocScenario.node[29].nic.mac1609_4 	NumInternalContention 	0
scalar LocScenario.node[29].nic.mac1609_4 	totalBusyTime 	1.129357
scalar LocScenario.node[29].veinsmobility 	startTime 	33.7
scalar LocScenario.node[29].veinsmobility 	totalTime 	37.4
scalar LocScenario.node[29].veinsmobility 	stopTime 	71.192244947452
scalar LocScenario.node[29].veinsmobility 	minSpeed 	10.45064542318
scalar LocScenario.node[29].veinsmobility 	maxSpeed 	10.49985965261
scalar LocScenario.node[29].veinsmobility 	totalDistance 	390.60289683239
scalar LocScenario.node[29].veinsmobility 	totalCO2Emission 	64.209880979753
scalar LocScenario.node[31].appl 	generatedWSMs 	0
scalar LocScenario.node[31].appl 	receivedWSMs 	0
scalar LocScenario.node[31].appl 	generatedBSMs 	700
scalar LocScenario.node[31].appl 	receivedBSMs 	8838
scalar LocScenario.node[31].appl 	generatedWSAs 	0
scalar LocScenario.node[31].appl 	receivedWSAs 	0
scalar LocScenario.node[31].appl 	rmseGPS 	18.783248514139
scalar LocScenario.node[31].appl 	rmseDRCP 	7.2878662047306
scalar LocScenario.node[31].appl 	timeOutage 	8.9
scalar LocScenario.node[31].nic.phy80211p 	busyTime 	0.028228459065053
scalar LocScenario.node[31].nic.mac1609_4 	ReceivedUnicastPackets 	0
scalar LocScenario.node[31].nic.mac1609_4 	ReceivedBroadcasts 	8838
scalar LocScenario.node[31].nic.mac1609_4 	SentPackets 	700
scalar LocScenario.node[31].nic.mac1609_4 	SNIRLostPackets 	686
scalar LocScenario.node[31].nic.mac1609_4 	RXTXLostPackets 	0
scalar LocScenario.node[31].nic.mac1609_4 	TotalLostPackets 	686
scalar LocScenario.node[31].nic.mac1609_4 	DroppedPacketsInMac 	0
scalar LocScenario.node[31].nic.mac1609_4 	TooLittleTime 	0
scalar LocScenario.node[31].nic.mac1609_4 	TimesIntoBackoff 	700
scalar LocScenario.node[31].nic.mac1609_4 	SlotsBackoff 	1056
scalar LocScenario.node[31].nic.mac1609_4 	NumInternalContention 	0
scalar LocScenario.node[31].nic.mac1609_4 	totalBusyTime 	1.029032450002
scalar LocScenario.node[31].veinsmobility 	startTime 	36.1
scalar LocScenario.node[31].veinsmobility 	totalTime 	35
scalar LocScenario.node[31].veinsmobility 	stopTime 	71.192244947452
scalar LocScenario.node[31].veinsmobility 	minSpeed 	10.450026087707
scalar LocScenario.node[31].veinsmobility 	maxSpeed 	10.499852970953
scalar LocScenario.node[31].veinsmobility 	totalDistance 	365.54881087151
scalar LocScenario.node[31].veinsmobility 	totalCO2Emission 	60.103331493704
scalar LocScenario.node[33].appl 	generatedWSMs 	0
scalar LocScenario.node[33].appl 	receivedWSMs 	0
scalar LocScenario.node[33].appl 	generatedBSMs 	653
scalar LocScenario.node[33].appl 	receivedBSMs 	8073
scalar LocScenario.node[33].appl 	generatedWSAs 	0
scalar LocScenario.node[33].appl 	receivedWSAs 	0
scalar LocScenario.node[33].appl 	rmseGPS 	9.112474766913
scalar LocScenario.node[33].appl 	rmseDRCP 	9.112474766913
scalar LocScenario.node[33].appl 	timeOutage 	-71.138460340374
scalar LocScenario.node[33].nic.phy80211p 	busyTime 	0.027625389490737
scalar LocScenario.node[33].nic.mac1609_4 	ReceivedUnicastPackets 	0
scalar LocScenario.node[33].nic.mac1609_4 	ReceivedBroadcasts 	8073
scalar LocScenario.node[33].nic.mac1609_4 	SentPackets 	653
scalar LocScenario.node[33].nic.mac1609_4 	SNIRLostPackets 	610
scalar LocScenario.node[33].nic.mac1609_4 	RXTXLostPackets 	0
scalar LocScenario.node[33].nic.mac1609_4 	TotalLostPackets 	610
scalar LocScenario.node[33].nic.mac1609_4 	DroppedPacketsInMac 	0
scalar LocScenario.node[33].nic.mac1609_4 	TooLittleTime 	0
scalar LocScenario.node[33].nic.mac1609_4 	TimesIntoBackoff 	653
scalar LocScenario.node[33].nic.mac1609_4 	SlotsBackoff 	969
scalar LocScenario.node[33].nic.mac1609_4 	NumInternalContention 	0
scalar LocScenario.node[33].nic.mac1609_4 	totalBusyTime 	0.941333
scalar LocScenario.node[33].veinsmobility 	startTime 	38.5
scalar LocScenario.node[33].veinsmobility 	totalTime 	32.6
scalar LocScenario.node[33].veinsmobility 	stopTime 	71.192244947452
scalar LocScenario.node[33].veinsmobility 	minSpeed 	10.450336889247
scalar LocScenario.node[33].veinsmobility 	maxSpeed 	10.499901936145
scalar LocScenario.node[33].veinsmobility 	totalDistance 	340.4364485055
scalar LocScenario.node[33].veinsmobility 	totalCO2Emission 	56.248515044247
scalar LocScenario.node[35].appl 	generatedWSMs 	0
scalar LocScenario.node[35].appl 	receivedWSMs 	0
scalar LocScenario.node[35].appl 	generatedBSMs 	605
scalar LocScenario.node[35].appl 	receivedBSMs 	7591
scalar LocScenario.node[35].appl 	generatedWSAs 	0
scalar LocScenario.node[35].appl 	receivedWSAs 	0
scalar LocScenario.node[35].appl 	rmseGPS 	9.2986580410064
scalar LocScenario.node[35].appl 	rmseDRCP 	9.2986580410064
scalar LocScenario.node[35].appl 	timeOutage 	-71.132131755026
scalar LocScenario.node[35].nic.phy80211p 	busyTime 	0.027088121115599
scalar LocScenario.node[35].nic.mac1609_4 	ReceivedUnicastPackets 	0
scalar LocScenario.node[35].nic.mac1609_4 	ReceivedBroadcasts 	7591
scalar LocScenario.node[35].nic.mac1609_4 	SentPackets 	605
scalar LocScenario.node[35].nic.mac1609_4 	SNIRLostPackets 	298
scalar LocScenario.node[35].nic.mac1609_4 	RXTXLostPackets 	0
scalar LocScenario.node[35].nic.mac1609_4 	TotalLostPackets 	298
scalar LocScenario.node[35].nic.mac1609_4 	DroppedPacketsInMac 	0
scalar LocScenario.node[35].nic.mac1609_4 	TooLittleTime 	0
scalar LocScenario.node[35].nic.mac1609_4 	TimesIntoBackoff 	605
scalar LocScenario.node[35].nic.mac1609_4 	SlotsBackoff 	870
scalar LocScenario.node[35].nic.mac1609_4 	NumInternalContention 	0
scalar LocScenario.node[35].nic.mac1609_4 	totalBusyTime 	0.868485
scalar LocScenario.node[35].veinsmobility 	startTime 	40.9
scalar LocScenario.node[35].veinsmobility 	totalTime 	30.2
scalar LocScenario.node[35].veinsmobility 	stopTime 	71.192244947452
scalar LocScenario.node[35].veinsmobility 	minSpeed 	10.450490569079
scalar LocScenario.node[35].veinsmobility 	maxSpeed 	10.499863706646
scalar LocScenario.node[35].veinsmobility 	totalDistance 	315.43437794107
scalar LocScenario.node[35].veinsmobility 	totalCO2Emission 	51.950748101069
scalar LocScenario.node[37].appl 	generatedWSMs 	0
scalar LocScenario.node[37].appl 	receivedWSMs 	0
scalar LocScenario.node[37].appl 	generatedBSMs 	557
scalar LocScenario.node[37].appl 	receivedBSMs 	6856
scalar LocScenario.node[37].appl 	generatedWSAs 	0
scalar LocScenario.node[37].appl 	receivedWSAs 	0
scalar LocScenario.node[37].appl 	rmseGPS 	8.8096079343874
scalar LocScenario.node[37].appl 	rmseDRCP 	8.8096079343874
scalar LocScenario.node[37].appl 	timeOutage 	-71.108197328891
scalar LocScenario.node[37].nic.phy80211p 	busyTime 	0.026633639615582
scalar LocScenario.node[37].nic.mac1609_4 	ReceivedUnicastPackets 	0
scalar LocScenario.node[37].nic.mac1609_4 	ReceivedBroadcasts 	6856
scalar LocScenario.node[37].nic.mac1609_4 	SentPackets 	557
scalar LocScenario.node[37].nic.mac1609_4 	SNIRLostPackets 	286
scalar LocScenario.node[37].nic.mac1609_4 	RXTXLostPackets 	0
scalar LocScenario.node[37].nic.mac1609_4 	TotalLostPackets 	286
scalar LocScenario.node[37].nic.mac1609_4 	DroppedPacketsInMac 	0
scalar LocScenario.node[37].nic.mac1609_4 	TooLittleTime 	0
scalar LocScenario.node[37].nic.mac1609_4 	TimesIntoBackoff 	557
scalar LocScenario.node[37].nic.mac1609_4 	SlotsBackoff 	807
scalar LocScenario.node[37].nic.mac1609_4 	NumInternalContention 	0
scalar LocScenario.node[37].nic.mac1609_4 	totalBusyTime 	0.786381
scalar LocScenario.node[37].veinsmobility 	startTime 	43.3
scalar LocScenario.node[37].veinsmobility 	totalTime 	27.8
scalar LocScenario.node[37].veinsmobility 	stopTime 	71.192244947452
scalar LocScenario.node[37].veinsmobility 	minSpeed 	10.450379130116
scalar LocScenario.node[37].veinsmobility 	maxSpeed 	10.499946114188
scalar LocScenario.node[37].veinsmobility 	totalDistance 	292.07634884493
scalar LocScenario.node[37].veinsmobility 	totalCO2Emission 	47.995121515499
scalar LocScenario.node[39].appl 	generatedWSMs 	0
scalar LocScenario.node[39].appl 	receivedWSMs 	0
scalar LocScenario.node[39].appl 	generatedBSMs 	509
scalar LocScenario.node[39].appl 	receivedBSMs 	6054
scalar LocScenario.node[39].appl 	generatedWSAs 	0
scalar LocScenario.node[39].appl 	receivedWSAs 	0
scalar LocScenario.node[39].appl 	rmseGPS 	17.059120528903
scalar LocScenario.node[39].appl 	rmseDRCP 	6.6136614593972
scalar LocScenario.node[39].appl 	timeOutage 	7.3
scalar LocScenario.node[39].nic.phy80211p 	busyTime 	0.025869200667079
scalar LocScenario.node[39].nic.mac1609_4 	ReceivedUnicastPackets 	0
scalar LocScenario.node[39].nic.mac1609_4 	ReceivedBroadcasts 	6054
scalar LocScenario.node[39].nic.mac1609_4 	SentPackets 	509
scalar LocScenario.node[39].nic.mac1609_4 	SNIRLostPackets 	286
scalar LocScenario.node[39].nic.mac1609_4 	RXTXLostPackets 	0
scalar LocScenario.node[39].nic.mac1609_4 	TotalLostPackets 	286
scalar LocScenario.node[39].nic.mac1609_4 	DroppedPacketsInMac 	0
scalar LocScenario.node[39].nic.mac1609_4 	TooLittleTime 	0
scalar LocScenario.node[39].nic.mac1609_4 	TimesIntoBackoff 	509
scalar LocScenario.node[39].nic.mac1609_4 	SlotsBackoff 	710
scalar LocScenario.node[39].nic.mac1609_4 	NumInternalContention 	0
scalar LocScenario.node[39].nic.mac1609_4 	totalBusyTime 	0.697933
scalar LocScenario.node[39].veinsmobility 	startTime 	45.7
scalar LocScenario.node[39].veinsmobility 	totalTime 	25.4
scalar LocScenario.node[39].veinsmobility 	stopTime 	71.192244947452
scalar LocScenario.node[39].veinsmobility 	minSpeed 	10.45000110236
scalar LocScenario.node[39].veinsmobility 	maxSpeed 	10.499755439442
scalar LocScenario.node[39].veinsmobility 	totalDistance 	266.86210232087
scalar LocScenario.node[39].veinsmobility 	totalCO2Emission 	43.759921627111
scalar LocScenario.node[5].appl 	generatedWSMs 	0
[...]
scalar LocScenario.node[55].nic.phy80211p 	busyTime 	0.018412506341941
scalar LocScenario.node[55].nic.mac1609_4 	ReceivedUnicastPackets 	0
scalar LocScenario.node[55].nic.mac1609_4 	ReceivedBroadcasts 	1114
scalar LocScenario.node[55].nic.mac1609_4 	SentPackets 	125
scalar LocScenario.node[55].nic.mac1609_4 	SNIRLostPackets 	0
scalar LocScenario.node[55].nic.mac1609_4 	RXTXLostPackets 	0
scalar LocScenario.node[55].nic.mac1609_4 	TotalLostPackets 	0
scalar LocScenario.node[55].nic.mac1609_4 	DroppedPacketsInMac 	0
scalar LocScenario.node[55].nic.mac1609_4 	TooLittleTime 	0
scalar LocScenario.node[55].nic.mac1609_4 	TimesIntoBackoff 	125
scalar LocScenario.node[55].nic.mac1609_4 	SlotsBackoff 	189
scalar LocScenario.node[55].nic.mac1609_4 	NumInternalContention 	0
scalar LocScenario.node[55].nic.mac1609_4 	totalBusyTime 	0.128981
scalar LocScenario.node[55].veinsmobility 	startTime 	64.9
scalar LocScenario.node[55].veinsmobility 	totalTime 	6.2
scalar LocScenario.node[55].veinsmobility 	stopTime 	71.192244947452
scalar LocScenario.node[55].veinsmobility 	minSpeed 	10.450278880377
scalar LocScenario.node[55].veinsmobility 	maxSpeed 	10.499260445754
scalar LocScenario.node[55].veinsmobility 	totalDistance 	64.755043549113
scalar LocScenario.node[55].veinsmobility 	totalCO2Emission 	10.489085268731
scalar LocScenario.node[57].appl 	generatedWSMs 	0
scalar LocScenario.node[57].appl 	receivedWSMs 	0
scalar LocScenario.node[57].appl 	generatedBSMs 	77
scalar LocScenario.node[57].appl 	receivedBSMs 	653
scalar LocScenario.node[57].appl 	generatedWSAs 	0
scalar LocScenario.node[57].appl 	receivedWSAs 	0
scalar LocScenario.node[57].appl 	rmseGPS 	8.8075606477978
scalar LocScenario.node[57].appl 	rmseDRCP 	8.8075606477978
scalar LocScenario.node[57].appl 	timeOutage 	-71.128499273374
scalar LocScenario.node[57].nic.phy80211p 	busyTime 	0.017448028301625
scalar LocScenario.node[57].nic.mac1609_4 	ReceivedUnicastPackets 	0
scalar LocScenario.node[57].nic.mac1609_4 	ReceivedBroadcasts 	653
scalar LocScenario.node[57].nic.mac1609_4 	SentPackets 	77
scalar LocScenario.node[57].nic.mac1609_4 	SNIRLostPackets 	0
scalar LocScenario.node[57].nic.mac1609_4 	RXTXLostPackets 	0
scalar LocScenario.node[57].nic.mac1609_4 	TotalLostPackets 	0
scalar LocScenario.node[57].nic.mac1609_4 	DroppedPacketsInMac 	0
scalar LocScenario.node[57].nic.mac1609_4 	TooLittleTime 	0
scalar LocScenario.node[57].nic.mac1609_4 	TimesIntoBackoff 	77
scalar LocScenario.node[57].nic.mac1609_4 	SlotsBackoff 	115
scalar LocScenario.node[57].nic.mac1609_4 	NumInternalContention 	0
scalar LocScenario.node[57].nic.mac1609_4 	totalBusyTime 	0.075997
scalar LocScenario.node[57].veinsmobility 	startTime 	67.3
scalar LocScenario.node[57].veinsmobility 	totalTime 	3.8
scalar LocScenario.node[57].veinsmobility 	stopTime 	71.192244947452
scalar LocScenario.node[57].veinsmobility 	minSpeed 	10.451459072274
scalar LocScenario.node[57].veinsmobility 	maxSpeed 	10.498056314362
scalar LocScenario.node[57].veinsmobility 	totalDistance 	39.685220533165
scalar LocScenario.node[57].veinsmobility 	totalCO2Emission 	6.4572041103253
scalar LocScenario.node[59].appl 	generatedWSMs 	0
scalar LocScenario.node[59].appl 	receivedWSMs 	0
scalar LocScenario.node[59].appl 	generatedBSMs 	29
scalar LocScenario.node[59].appl 	receivedBSMs 	240
scalar LocScenario.node[59].appl 	generatedWSAs 	0
scalar LocScenario.node[59].appl 	receivedWSAs 	0
scalar LocScenario.node[59].appl 	rmseGPS 	9.0458225866008
scalar LocScenario.node[59].appl 	rmseDRCP 	9.0458225866008
scalar LocScenario.node[59].appl 	timeOutage 	-71.185836551199
scalar LocScenario.node[59].nic.phy80211p 	busyTime 	0.016726476469308
scalar LocScenario.node[59].nic.mac1609_4 	ReceivedUnicastPackets 	0
scalar LocScenario.node[59].nic.mac1609_4 	ReceivedBroadcasts 	240
scalar LocScenario.node[59].nic.mac1609_4 	SentPackets 	29
scalar LocScenario.node[59].nic.mac1609_4 	SNIRLostPackets 	0
scalar LocScenario.node[59].nic.mac1609_4 	RXTXLostPackets 	0
scalar LocScenario.node[59].nic.mac1609_4 	TotalLostPackets 	0
scalar LocScenario.node[59].nic.mac1609_4 	DroppedPacketsInMac 	0
scalar LocScenario.node[59].nic.mac1609_4 	TooLittleTime 	0
scalar LocScenario.node[59].nic.mac1609_4 	TimesIntoBackoff 	29
scalar LocScenario.node[59].nic.mac1609_4 	SlotsBackoff 	50
scalar LocScenario.node[59].nic.mac1609_4 	NumInternalContention 	0
scalar LocScenario.node[59].nic.mac1609_4 	totalBusyTime 	0.028005
scalar LocScenario.node[59].veinsmobility 	startTime 	69.7
scalar LocScenario.node[59].veinsmobility 	totalTime 	1.4
scalar LocScenario.node[59].veinsmobility 	stopTime 	71.192244947452
scalar LocScenario.node[59].veinsmobility 	minSpeed 	10.451280510612
scalar LocScenario.node[59].veinsmobility 	maxSpeed 	10.489911891299
scalar LocScenario.node[59].veinsmobility 	totalDistance 	14.615852022653
scalar LocScenario.node[59].veinsmobility 	totalCO2Emission 	2.322481022005
scalar LocScenario.node[7].appl 	generatedWSMs 	0
scalar LocScenario.node[7].appl 	receivedWSMs 	0
scalar LocScenario.node[7].appl 	generatedBSMs 	1277
scalar LocScenario.node[7].appl 	receivedBSMs 	12515
scalar LocScenario.node[7].appl 	generatedWSAs 	0
scalar LocScenario.node[7].appl 	receivedWSAs 	0
scalar LocScenario.node[7].appl 	rmseGPS 	46.506991549943
scalar LocScenario.node[7].appl 	rmseDRCP 	11.305194283145
scalar LocScenario.node[7].appl 	timeOutage 	22
scalar LocScenario.node[7].nic.phy80211p 	busyTime 	0.020371173388425
scalar LocScenario.node[7].nic.mac1609_4 	ReceivedUnicastPackets 	0
scalar LocScenario.node[7].nic.mac1609_4 	ReceivedBroadcasts 	12515
scalar LocScenario.node[7].nic.mac1609_4 	SentPackets 	1277
scalar LocScenario.node[7].nic.mac1609_4 	SNIRLostPackets 	0
scalar LocScenario.node[7].nic.mac1609_4 	RXTXLostPackets 	0
scalar LocScenario.node[7].nic.mac1609_4 	TotalLostPackets 	0
scalar LocScenario.node[7].nic.mac1609_4 	DroppedPacketsInMac 	0
scalar LocScenario.node[7].nic.mac1609_4 	TooLittleTime 	0
scalar LocScenario.node[7].nic.mac1609_4 	TimesIntoBackoff 	1277
scalar LocScenario.node[7].nic.mac1609_4 	SlotsBackoff 	1955
scalar LocScenario.node[7].nic.mac1609_4 	NumInternalContention 	0
scalar LocScenario.node[7].nic.mac1609_4 	totalBusyTime 	1.435645
scalar LocScenario.node[7].veinsmobility 	startTime 	7.3
scalar LocScenario.node[7].veinsmobility 	totalTime 	63.8
scalar LocScenario.node[7].veinsmobility 	stopTime 	71.192244947452
scalar LocScenario.node[7].veinsmobility 	minSpeed 	10.450104123866
scalar LocScenario.node[7].veinsmobility 	maxSpeed 	10.499996971502
scalar LocScenario.node[7].veinsmobility 	totalDistance 	666.69394523077
scalar LocScenario.node[7].veinsmobility 	totalCO2Emission 	109.97548277861
scalar LocScenario.node[9].appl 	generatedWSMs 	0
scalar LocScenario.node[9].appl 	receivedWSMs 	0
scalar LocScenario.node[9].appl 	generatedBSMs 	1229
scalar LocScenario.node[9].appl 	receivedBSMs 	12908
scalar LocScenario.node[9].appl 	generatedWSAs 	0
scalar LocScenario.node[9].appl 	receivedWSAs 	0
scalar LocScenario.node[9].appl 	rmseGPS 	48.039024965347
scalar LocScenario.node[9].appl 	rmseDRCP 	9.1226817549015
scalar LocScenario.node[9].appl 	timeOutage 	21.1
scalar LocScenario.node[9].nic.phy80211p 	busyTime 	0.022174243291419
scalar LocScenario.node[9].nic.mac1609_4 	ReceivedUnicastPackets 	0
scalar LocScenario.node[9].nic.mac1609_4 	ReceivedBroadcasts 	12908
scalar LocScenario.node[9].nic.mac1609_4 	SentPackets 	1229
scalar LocScenario.node[9].nic.mac1609_4 	SNIRLostPackets 	202
scalar LocScenario.node[9].nic.mac1609_4 	RXTXLostPackets 	0
scalar LocScenario.node[9].nic.mac1609_4 	TotalLostPackets 	202
scalar LocScenario.node[9].nic.mac1609_4 	DroppedPacketsInMac 	0
scalar LocScenario.node[9].nic.mac1609_4 	TooLittleTime 	0
scalar LocScenario.node[9].nic.mac1609_4 	TimesIntoBackoff 	1229
scalar LocScenario.node[9].nic.mac1609_4 	SlotsBackoff 	1792
scalar LocScenario.node[9].nic.mac1609_4 	NumInternalContention 	0
scalar LocScenario.node[9].nic.mac1609_4 	totalBusyTime 	1.481981
scalar LocScenario.node[9].veinsmobility 	startTime 	9.7
scalar LocScenario.node[9].veinsmobility 	totalTime 	61.4
scalar LocScenario.node[9].veinsmobility 	stopTime 	71.192244947452
scalar LocScenario.node[9].veinsmobility 	minSpeed 	10.450098725781
scalar LocScenario.node[9].veinsmobility 	maxSpeed 	10.499922190141
scalar LocScenario.node[9].veinsmobility 	totalDistance 	646.51450576932
scalar LocScenario.node[9].veinsmobility 	totalCO2Emission 	105.67829865421
scalar LocScenario.node[11].appl 	generatedWSMs 	0
scalar LocScenario.node[11].appl 	receivedWSMs 	0
scalar LocScenario.node[11].appl 	generatedBSMs 	1181
scalar LocScenario.node[11].appl 	receivedBSMs 	13002
scalar LocScenario.node[11].appl 	generatedWSAs 	0
scalar LocScenario.node[11].appl 	receivedWSAs 	0
scalar LocScenario.node[11].appl 	rmseGPS 	109.99458479086
scalar LocScenario.node[11].appl 	rmseDRCP 	6.3639023378466
scalar LocScenario.node[11].appl 	timeOutage 	34.5
scalar LocScenario.node[11].nic.phy80211p 	busyTime 	0.02414489416114
scalar LocScenario.node[11].nic.mac1609_4 	ReceivedUnicastPackets 	0
scalar LocScenario.node[11].nic.mac1609_4 	ReceivedBroadcasts 	13002
scalar LocScenario.node[11].nic.mac1609_4 	SentPackets 	1181
scalar LocScenario.node[11].nic.mac1609_4 	SNIRLostPackets 	716
scalar LocScenario.node[11].nic.mac1609_4 	RXTXLostPackets 	0
scalar LocScenario.node[11].nic.mac1609_4 	TotalLostPackets 	716
scalar LocScenario.node[11].nic.mac1609_4 	DroppedPacketsInMac 	0
scalar LocScenario.node[11].nic.mac1609_4 	TooLittleTime 	0
scalar LocScenario.node[11].nic.mac1609_4 	TimesIntoBackoff 	1181
scalar LocScenario.node[11].nic.mac1609_4 	SlotsBackoff 	1741
scalar LocScenario.node[11].nic.mac1609_4 	NumInternalContention 	0
scalar LocScenario.node[11].nic.mac1609_4 	totalBusyTime 	1.513445
scalar LocScenario.node[11].veinsmobility 	startTime 	12.1
scalar LocScenario.node[11].veinsmobility 	totalTime 	59
scalar LocScenario.node[11].veinsmobility 	stopTime 	71.192244947452
scalar LocScenario.node[11].veinsmobility 	minSpeed 	10.45037852393
scalar LocScenario.node[11].veinsmobility 	maxSpeed 	10.499847945163
scalar LocScenario.node[11].veinsmobility 	totalDistance 	616.57664271899
scalar LocScenario.node[11].veinsmobility 	totalCO2Emission 	101.85740906286
scalar LocScenario.node[13].appl 	generatedWSMs 	0
scalar LocScenario.node[13].appl 	receivedWSMs 	0
scalar LocScenario.node[13].appl 	generatedBSMs 	1133
scalar LocScenario.node[13].appl 	receivedBSMs 	13371
scalar LocScenario.node[13].appl 	generatedWSAs 	0
scalar LocScenario.node[13].appl 	receivedWSAs 	0
scalar LocScenario.node[13].appl 	rmseGPS 	9.0289622540666
scalar LocScenario.node[13].appl 	rmseDRCP 	9.0289622540666
scalar LocScenario.node[13].appl 	timeOutage 	-71.167346952087
scalar LocScenario.node[13].nic.phy80211p 	busyTime 	0.025990715332691
scalar LocScenario.node[13].nic.mac1609_4 	ReceivedUnicastPackets 	0
scalar LocScenario.node[13].nic.mac1609_4 	ReceivedBroadcasts 	13371
scalar LocScenario.node[13].nic.mac1609_4 	SentPackets 	1133
scalar LocScenario.node[13].nic.mac1609_4 	SNIRLostPackets 	796
scalar LocScenario.node[13].nic.mac1609_4 	RXTXLostPackets 	0
scalar LocScenario.node[13].nic.mac1609_4 	TotalLostPackets 	796
scalar LocScenario.node[13].nic.mac1609_4 	DroppedPacketsInMac 	0
scalar LocScenario.node[13].nic.mac1609_4 	TooLittleTime 	0
scalar LocScenario.node[13].nic.mac1609_4 	TimesIntoBackoff 	1133
scalar LocScenario.node[13].nic.mac1609_4 	SlotsBackoff 	1740
scalar LocScenario.node[13].nic.mac1609_4 	NumInternalContention 	0
scalar LocScenario.node[13].nic.mac1609_4 	totalBusyTime 	1.550941
scalar LocScenario.node[13].veinsmobility 	startTime 	14.5
scalar LocScenario.node[13].veinsmobility 	totalTime 	56.6
scalar LocScenario.node[13].veinsmobility 	stopTime 	71.192244947452
scalar LocScenario.node[13].veinsmobility 	minSpeed 	10.450036100612
scalar LocScenario.node[13].veinsmobility 	maxSpeed 	10.499911380641
scalar LocScenario.node[13].veinsmobility 	totalDistance 	591.36771865061
scalar LocScenario.node[13].veinsmobility 	totalCO2Emission 	97.867064214292
scalar LocScenario.node[15].appl 	generatedWSMs 	0
scalar LocScenario.node[15].appl 	receivedWSMs 	0
scalar LocScenario.node[15].appl 	generatedBSMs 	1085
scalar LocScenario.node[15].appl 	receivedBSMs 	13702
scalar LocScenario.node[15].appl 	generatedWSAs 	0
scalar LocScenario.node[15].appl 	receivedWSAs 	0
scalar LocScenario.node[15].appl 	rmseGPS 	38.830970981061
scalar LocScenario.node[15].appl 	rmseDRCP 	7.7729803674266
scalar LocScenario.node[15].appl 	timeOutage 	18.6
scalar LocScenario.node[15].nic.phy80211p 	busyTime 	0.027773690357802
scalar LocScenario.node[15].nic.mac1609_4 	ReceivedUnicastPackets 	0
scalar LocScenario.node[15].nic.mac1609_4 	ReceivedBroadcasts 	13702
scalar LocScenario.node[15].nic.mac1609_4 	SentPackets 	1085
scalar LocScenario.node[15].nic.mac1609_4 	SNIRLostPackets 	796
scalar LocScenario.node[15].nic.mac1609_4 	RXTXLostPackets 	0
scalar LocScenario.node[15].nic.mac1609_4 	TotalLostPackets 	796
scalar LocScenario.node[15].nic.mac1609_4 	DroppedPacketsInMac 	0
scalar LocScenario.node[15].nic.mac1609_4 	TooLittleTime 	0
scalar LocScenario.node[15].nic.mac1609_4 	TimesIntoBackoff 	1085
scalar LocScenario.node[15].nic.mac1609_4 	SlotsBackoff 	1608
scalar LocScenario.node[15].nic.mac1609_4 	NumInternalContention 	0
scalar LocScenario.node[15].nic.mac1609_4 	totalBusyTime 	1.580325
scalar LocScenario.node[15].veinsmobility 	startTime 	16.9
scalar LocScenario.node[15].veinsmobility 	totalTime 	54.2
scalar LocScenario.node[15].veinsmobility 	stopTime 	71.192244947452
scalar LocScenario.node[15].veinsmobility 	minSpeed 	10.450082256005
scalar LocScenario.node[15].veinsmobility 	maxSpeed 	10.49998730768
scalar LocScenario.node[15].veinsmobility 	totalDistance 	571.18323286598
scalar LocScenario.node[15].veinsmobility 	totalCO2Emission 	93.776543121705
scalar LocScenario.node[17].appl 	generatedWSMs 	0
scalar LocScenario.node[17].appl 	receivedWSMs 	0
scalar LocScenario.node[17].appl 	generatedBSMs 	1037
scalar LocScenario.node[17].appl 	receivedBSMs 	13856
scalar LocScenario.node[17].appl 	generatedWSAs 	0
scalar LocScenario.node[17].appl 	receivedWSAs 	0
scalar LocScenario.node[17].appl 	rmseGPS 	9.070765327539
scalar LocScenario.node[17].appl 	rmseDRCP 	9.070765327539
scalar LocScenario.node[17].appl 	timeOutage 	-71.125057067466
scalar LocScenario.node[17].nic.phy80211p 	busyTime 	0.029366854364147
scalar LocScenario.node[17].nic.mac1609_4 	ReceivedUnicastPackets 	0
scalar LocScenario.node[17].nic.mac1609_4 	ReceivedBroadcasts 	13856
scalar LocScenario.node[17].nic.mac1609_4 	SentPackets 	1037
scalar LocScenario.node[17].nic.mac1609_4 	SNIRLostPackets 	796
scalar LocScenario.node[17].nic.mac1609_4 	RXTXLostPackets 	0
scalar LocScenario.node[17].nic.mac1609_4 	TotalLostPackets 	796
scalar LocScenario.node[17].nic.mac1609_4 	DroppedPacketsInMac 	0
scalar LocScenario.node[17].nic.mac1609_4 	TooLittleTime 	0
scalar LocScenario.node[17].nic.mac1609_4 	TimesIntoBackoff 	1037
scalar LocScenario.node[17].nic.mac1609_4 	SlotsBackoff 	1613
scalar LocScenario.node[17].nic.mac1609_4 	NumInternalContention 	0
scalar LocScenario.node[17].nic.mac1609_4 	totalBusyTime 	1.591301
scalar LocScenario.node[17].veinsmobility 	startTime 	19.3
scalar LocScenario.node[17].veinsmobility 	totalTime 	51.8
scalar LocScenario.node[17].veinsmobility 	stopTime 	71.192244947452
scalar LocScenario.node[17].veinsmobility 	minSpeed 	10.450172462605
scalar LocScenario.node[17].veinsmobility 	maxSpeed 	10.49978691499
scalar LocScenario.node[17].veinsmobility 	totalDistance 	546.13831082175
scalar LocScenario.node[17].veinsmobility 	totalCO2Emission 	89.333779807457
scalar LocScenario.node[19].appl 	generatedWSMs 	0
scalar LocScenario.node[19].appl 	receivedWSMs 	0
scalar LocScenario.node[19].appl 	generatedBSMs 	989
scalar LocScenario.node[19].appl 	receivedBSMs 	13876
scalar LocScenario.node[19].appl 	generatedWSAs 	0
scalar LocScenario.node[19].appl 	receivedWSAs 	0
scalar LocScenario.node[19].appl 	rmseGPS 	99.279915478923
scalar LocScenario.node[19].appl 	rmseDRCP 	5.7348415891303
scalar LocScenario.node[19].appl 	timeOutage 	29.7
scalar LocScenario.node[19].nic.phy80211p 	busyTime 	0.030086976284496
scalar LocScenario.node[19].nic.mac1609_4 	ReceivedUnicastPackets 	0
scalar LocScenario.node[19].nic.mac1609_4 	ReceivedBroadcasts 	13876
scalar LocScenario.node[19].nic.mac1609_4 	SentPackets 	989
scalar LocScenario.node[19].nic.mac1609_4 	SNIRLostPackets 	441
scalar LocScenario.node[19].nic.mac1609_4 	RXTXLostPackets 	0
scalar LocScenario.node[19].nic.mac1609_4 	TotalLostPackets 	441
scalar LocScenario.node[19].nic.mac1609_4 	DroppedPacketsInMac 	0
scalar LocScenario.node[19].nic.mac1609_4 	TooLittleTime 	0
scalar LocScenario.node[19].nic.mac1609_4 	TimesIntoBackoff 	989
scalar LocScenario.node[19].nic.mac1609_4 	SlotsBackoff 	1497
scalar LocScenario.node[19].nic.mac1609_4 	NumInternalContention 	0
scalar LocScenario.node[19].nic.mac1609_4 	totalBusyTime 	1.557453
scalar LocScenario.node[19].veinsmobility 	startTime 	21.7
scalar LocScenario.node[19].veinsmobility 	totalTime 	49.4
scalar LocScenario.node[19].veinsmobility 	stopTime 	71.192244947452
scalar LocScenario.node[19].veinsmobility 	minSpeed 	10.450100299821
scalar LocScenario.node[19].veinsmobility 	maxSpeed 	10.499904276046
scalar LocScenario.node[19].veinsmobility 	totalDistance 	516.09246060568
scalar LocScenario.node[19].veinsmobility 	totalCO2Emission 	85.439353449866
scalar LocScenario.rsu[0].appl 	generatedWSMs 	0
scalar LocScenario.rsu[0].appl 	receivedWSMs 	0
scalar LocScenario.rsu[0].appl 	generatedBSMs 	0
scalar LocScenario.rsu[0].appl 	receivedBSMs 	2016
scalar LocScenario.rsu[0].appl 	generatedWSAs 	0
scalar LocScenario.rsu[0].appl 	receivedWSAs 	0
scalar LocScenario.rsu[0].appl 	rmseGPS 	-nan
scalar LocScenario.rsu[0].appl 	rmseDRCP 	-nan
scalar LocScenario.rsu[0].appl 	timeOutage 	0
scalar LocScenario.rsu[0].nic.phy80211p 	busyTime 	0.0029450398727383
scalar LocScenario.rsu[0].nic.mac1609_4 	ReceivedUnicastPackets 	0
scalar LocScenario.rsu[0].nic.mac1609_4 	ReceivedBroadcasts 	2016
scalar LocScenario.rsu[0].nic.mac1609_4 	SentPackets 	0
scalar LocScenario.rsu[0].nic.mac1609_4 	SNIRLostPackets 	0
scalar LocScenario.rsu[0].nic.mac1609_4 	RXTXLostPackets 	0
scalar LocScenario.rsu[0].nic.mac1609_4 	TotalLostPackets 	0
scalar LocScenario.rsu[0].nic.mac1609_4 	DroppedPacketsInMac 	0
scalar LocScenario.rsu[0].nic.mac1609_4 	TooLittleTime 	0
scalar LocScenario.rsu[0].nic.mac1609_4 	TimesIntoBackoff 	0
scalar LocScenario.rsu[0].nic.mac1609_4 	SlotsBackoff 	0
scalar LocScenario.rsu[0].nic.mac1609_4 	NumInternalContention 	0
scalar LocScenario.rsu[0].nic.mac1609_4 	totalBusyTime 	0.209664
scalar LocScenario.outagesServer.appl 	generatedWSMs 	841818168
scalar LocScenario.outagesServer.appl 	receivedWSMs 	540292403
scalar LocScenario.outagesServer.appl 	generatedBSMs 	0
scalar LocScenario.outagesServer.appl 	receivedBSMs 	757086008
scalar LocScenario.outagesServer.appl 	generatedWSAs 	909325102
scalar LocScenario.outagesServer.appl 	receivedWSAs 	0
scalar LocScenario.outagesServer.nic.phy80211p 	busyTime 	0
scalar LocScenario.outagesServer.nic.mac1609_4 	ReceivedUnicastPackets 	0
scalar LocScenario.outagesServer.nic.mac1609_4 	ReceivedBroadcasts 	0
scalar LocScenario.outagesServer.nic.mac1609_4 	SentPackets 	0
scalar LocScenario.outagesServer.nic.mac1609_4 	SNIRLostPackets 	0
scalar LocScenario.outagesServer.nic.mac1609_4 	RXTXLostPackets 	0
scalar LocScenario.outagesServer.nic.mac1609_4 	TotalLostPackets 	0
scalar LocScenario.outagesServer.nic.mac1609_4 	DroppedPacketsInMac 	0
scalar LocScenario.outagesServer.nic.mac1609_4 	TooLittleTime 	0
scalar LocScenario.outagesServer.nic.mac1609_4 	TimesIntoBackoff 	0
scalar LocScenario.outagesServer.nic.mac1609_4 	SlotsBackoff 	0
scalar LocScenario.outagesServer.nic.mac1609_4 	NumInternalContention 	0
scalar LocScenario.outagesServer.nic.mac1609_4 	totalBusyTime 	0
