version 2
run DMAT-1-20170704-20:20:40-30763
attr configname DMAT
attr datetime 20170704-20:20:40
attr experiment DMAT
attr inifile omnetpp.ini
attr iterationvars ""
attr iterationvars2 $repetition=1
attr measurement ""
attr network com.liborio.cooperativepositioning.LocScenario
attr processid 30763
attr repetition 1
attr replication #1
attr resultdir results
attr runnumber 1
attr seedset 1
param **.coreDebug false
param **.debug false
param *.annotations.draw true
param *.connectionManager.drawMaxIntfDist true
param *.connectionManager.maxInterfDist 510.36m
param *.connectionManager.sendDirect true
param *.manager.autoShutdown true
param *.manager.host "\"localhost\""
param *.manager.launchConfig "xmldoc(\"dmat.launchd.xml\")"
param *.manager.port 9999
param *.manager.updateInterval 0.1s
param *.node[*].appl.beaconInterval 0.1s
param *.node[*].appl.dataOnSch false
param *.node[*].appl.headerLength "80 bit"
param *.node[*].appl.sendBeacons true
param *.node[*].applType "\"LocAppCom\""
param *.node[*].nic.mac1609_4.bitrate 6Mbps
param *.node[*].nic.mac1609_4.txPower 20mW
param *.node[*].nic.mac1609_4.useServiceChannel false
param *.node[*].nic.phy80211p.analogueModels "xmldoc(\"config.xml\")"
param *.node[*].nic.phy80211p.antenna "xmldoc(\"antenna.xml\", \"/root/Antenna[@id='monopole']\")"
param *.node[*].nic.phy80211p.decider "xmldoc(\"config.xml\")"
param *.node[*].nic.phy80211p.sensitivity -89dBm
param *.node[*].nic.phy80211p.thermalNoise -110dBm
param *.node[*].nic.phy80211p.usePropagationDelay true
param *.node[*].nic.phy80211p.useThermalNoise true
param *.node[*].veinsmobility.x 0
param *.node[*].veinsmobility.y 0
param *.node[*].veinsmobility.z 1.895
param *.node[*].veinsmobilityType.debug true
param *.playgroundSizeX 2500m
param *.playgroundSizeY 2500m
param *.playgroundSizeZ 50m
param *.rsu[*].appl.beaconInterval 0.1s
param *.rsu[*].appl.beaconPriority 3
param *.rsu[*].appl.dataOnSch false
param *.rsu[*].appl.dataPriority 2
param *.rsu[*].appl.headerLength "80 bit"
param *.rsu[*].appl.sendBeacons false
param *.rsu[*].applType "\"RSU\""
param *.rsu[*].nic.mac1609_4.bitrate 6Mbps
param *.rsu[*].nic.mac1609_4.txPower 20mW
param *.rsu[*].nic.mac1609_4.useServiceChannel false
param *.rsu[*].nic.phy80211p.analogueModels "xmldoc(\"config.xml\")"
param *.rsu[*].nic.phy80211p.antenna "xmldoc(\"antenna.xml\", \"/root/Antenna[@id='monopole']\")"
param *.rsu[*].nic.phy80211p.decider "xmldoc(\"config.xml\")"
param *.rsu[*].nic.phy80211p.sensitivity -89dBm
param *.rsu[*].nic.phy80211p.thermalNoise -110dBm
param *.rsu[*].nic.phy80211p.usePropagationDelay true
param *.rsu[*].nic.phy80211p.useThermalNoise true
param *.rsu[0].mobility.x 384.566
param *.rsu[0].mobility.y 1449.48
param *.rsu[0].mobility.z 3
param *.rsu[1].mobility.x 387.772
param *.rsu[1].mobility.y 1238.66
param *.rsu[1].mobility.z 3
param *.rsu[2].mobility.x 387.639
param *.rsu[2].mobility.y 1060.02
param *.rsu[2].mobility.z 3

vector 8  LocScenario.node[0].veinsmobility  posx  ETV
vector 9  LocScenario.node[0].veinsmobility  posy  ETV
vector 15  LocScenario.node[1].veinsmobility  posx  ETV
vector 16  LocScenario.node[1].veinsmobility  posy  ETV
vector 10  LocScenario.node[0].veinsmobility  speed  ETV
vector 17  LocScenario.node[1].veinsmobility  speed  ETV
vector 11  LocScenario.node[0].veinsmobility  acceleration  ETV
vector 12  LocScenario.node[0].veinsmobility  co2emission  ETV
vector 18  LocScenario.node[1].veinsmobility  acceleration  ETV
vector 19  LocScenario.node[1].veinsmobility  co2emission  ETV
12	40	0.3	2.6347049934108
12	59	0.4	1.3404386072043
12	78	0.5	1.9195879078434
12	97	0.6	1.7919175856844
12	116	0.7	1.6039976171751
12	135	0.8	1.5208762472873
12	154	0.9	1.6572311730771
12	173	1	1.5420727407345
12	192	1.1	1.8728597525421
12	211	1.2	1.3852741050908
12	230	1.3	2.3303534653919
12	249	1.4	0.973
12	268	1.5	2.7995977592932
12	287	1.6	0.973
12	306	1.7	2.0414948977392
12	325	1.8	1.5428498072051
12	344	1.9	2.2518110780571
12	363	2	1.649725478946
12	382	2.1	0.973
12	401	2.2	1.5086786010307
12	420	2.3	2.5495224348536
12	439	2.4	1.2429152660571
12	458	2.5	1.4880946968675
12	477	2.6	1.6969898971206
12	496	2.7	2.7470091892288
12	515	2.8	1.7814835429939
12	534	2.9	1.5574611640002
12	553	3	0.973
12	572	3.1	2.7092471216047
12	591	3.2	1.3142481635855
12	610	3.3	0.973
12	629	3.4	2.257379644982
12	648	3.5	1.5205892455494
12	667	3.6	2.1976936876964
12	686	3.7	1.2529042256576
12	705	3.8	1.5335069985615
12	724	3.9	2.7561689900453
12	743	4	0.973
12	762	4.1	1.4189572200318
12	781	4.2	2.0239715242557
12	800	4.3	2.3133503370294
12	819	4.4	0.973
12	838	4.5	2.590655778783
12	857	4.6	1.2865365214574
12	876	4.7	0.973
12	895	4.8	2.4993212212914
12	914	4.9	1.7297043685002
12	933	5	1.9224134717127
12	952	5.1	1.8633854936993
12	971	5.2	0.973
12	990	5.3	2.3131651423326
12	1009	5.4	1.6542802596729
12	1028	5.5	1.4362145955825
12	1047	5.6	2.2775549813694
12	1066	5.7	0.973
12	1085	5.8	2.2632583357767
12	1104	5.9	0.973
12	1123	6	1.5814220482608
12	1142	6.1	2.4785792867619
12	1161	6.2	1.3282020339923
12	1180	6.3	1.3671952952184
12	1199	6.4	2.0756798112546
12	1218	6.5	2.1839903985637
12	1237	6.6	0.973
12	1256	6.7	1.5595364038363
12	1275	6.8	1.90937431162
12	1294	6.9	0.973
12	1313	7	2.1728961865572
12	1332	7.1	1.3207409719791
12	1351	7.2	2.6913736238151
12	1370	7.3	1.7206335187441
12	1389	7.4	0.973
12	1408	7.5	2.2393040562864
12	1427	7.6	2.0165236180563
12	1446	7.7	0.973
12	1465	7.8	2.4543956287033
12	1484	7.9	1.2123751886609
12	1503	8	1.7518912240408
12	1522	8.1	1.5217888965995
12	1541	8.2	2.0485320031299
12	1560	8.3	1.5600528639435
12	1579	8.4	2.2299275795852
12	1598	8.5	1.8221861161055
12	1617	8.6	0.973
12	1636	8.7	2.3124459711097
12	1655	8.8	0.973
12	1674	8.9	2.1009892843649
12	1693	9	1.7736760838129
12	1712	9.1	2.3640758245176
12	1731	9.2	0.973
12	1750	9.3	2.3524247921259
12	1769	9.4	1.5590754355
12	1788	9.5	1.9368470725371
12	1807	9.6	1.9387790408904
12	1826	9.7	0.973
12	1845	9.8	2.1372157382663
12	1864	9.9	2.4456552153242
12	1883	10	0.973
12	1902	10.1	2.0891574174713
12	1921	10.2	1.4684492720895
12	1940	10.3	1.2678131268244
12	1959	10.4	2.3898181654425
12	1978	10.5	0.973
12	1997	10.6	2.0807537235399
12	2016	10.7	2.4920284221914
12	2035	10.8	0.973
12	2054	10.9	2.0215618051121
12	2073	11	1.3336740196861
12	2092	11.1	2.7657336294784
12	2111	11.2	1.7674336977021
12	2130	11.3	0.973
12	2149	11.4	2.0180457247112
12	2168	11.5	2.5210917260256
12	2187	11.6	0.973
12	2206	11.7	1.7224947378486
12	2225	11.8	1.5067555604424
12	2244	11.9	1.9873539899518
12	2263	12	2.4655537885319
12	2282	12.1	1.8554497760582
12	2301	12.2	1.7153477273652
12	2320	12.3	1.7206976109082
12	2339	12.4	1.447110013743
12	2358	12.5	0.973
12	2377	12.6	2.1266909761315
12	2396	12.7	1.7036289657375
12	2415	12.8	1.3556935288335
12	2434	12.9	2.6307032428281
12	2453	13	1.5264946410045
12	2472	13.1	1.3343420744022
12	2491	13.2	1.2362401959771
12	2510	13.3	2.2368085846908
12	2529	13.4	2.4095757035991
12	2548	13.5	0.973
12	2567	13.6	2.4399756284141
12	2586	13.7	0.973
12	2605	13.8	2.2514025795283
12	2624	13.9	0.973
12	2643	14	1.8672973298189
12	2662	14.1	1.9621439056959
12	2681	14.2	2.2537105024922
12	2700	14.3	1.8200355507262
12	2719	14.4	1.645308119344
12	2738	14.5	1.8204245228621
12	2757	14.6	1.6434397734366
12	2776	14.7	1.5731602002603
12	2795	14.8	0.973
12	2814	14.9	1.9146677782118
12	2833	15	2.4156646943109
12	2852	15.1	1.6480233414146
12	2871	15.2	0.973
12	2890	15.3	2.2249152568012
12	2909	15.4	2.1837849899084
12	2928	15.5	1.6605026368111
12	2947	15.6	0.973
12	2966	15.7	2.415903242047
12	2985	15.8	1.2342267228559
12	3004	15.9	1.2301634059038
12	3023	16	1.8753681600871
12	3042	16.1	2.489621205279
12	3061	16.2	1.4009972222692
12	3080	16.3	1.5618349441504
12	3099	16.4	1.4567740281701
12	3118	16.5	2.5726953385648
12	3137	16.6	1.8982482261115
12	3156	16.7	1.6581139898777
12	3175	16.8	1.1960130533528
12	3194	16.9	1.5697021236202
12	3213	17	1.7685119575093
12	3232	17.1	2.0399261394386
12	3251	17.2	0.973
12	3270	17.3	2.237074287536
12	3289	17.4	1.9740553618167
12	3308	17.5	1.5057451048798
12	3327	17.6	1.4754534953017
12	3346	17.7	1.8168073872953
12	3365	17.8	2.2333290097978
12	3384	17.9	1.974378748834
12	3403	18	1.3383614687584
12	3422	18.1	1.3934660943005
12	3441	18.2	2.2529285378107
12	3460	18.3	0.973
12	3479	18.4	2.591161591068
12	3498	18.5	1.4775605498264
12	3517	18.6	0.973
12	3536	18.7	2.4954588291113
12	3555	18.8	0.973
12	3574	18.9	1.8662709562869
12	3593	19	1.2157782116185
12	3612	19.1	2.5583509309846
12	3631	19.2	1.9728008169019
12	3650	19.3	0.973
12	3669	19.4	1.6736388919196
12	3688	19.5	1.5490156714576
12	3707	19.6	1.6893667023685
12	3726	19.7	2.8848534036236
12	3745	19.8	1.4439740018957
12	3764	19.9	1.2386018439163
12	3783	20	1.3012633792825
12	3802	20.1	1.7182624408679
12	3821	20.2	2.2178543728146
12	3840	20.3	1.267673644326
12	3859	20.4	2.0666055173482
12	3878	20.5	2.0396179538527
12	3897	20.6	1.6003857697821
12	3916	20.7	1.5718085910162
12	3935	20.8	1.7904042551087
12	3954	20.9	1.2453836016515
12	3973	21	1.7292290275152
12	3992	21.1	2.3834703223019
12	4011	21.2	0.973
12	4030	21.3	2.7206182416008
12	4049	21.4	1.7831852448891
12	4068	21.5	1.7118647054732
12	4087	21.6	1.2537186591285
12	4106	21.7	2.3358673132087
12	4125	21.8	0.973
12	4144	21.9	1.8725156693723
12	4163	22	2.7508325291674
12	4182	22.1	1.5190077122734
12	4201	22.2	1.5252533907783
12	4220	22.3	1.9771851207897
12	4239	22.4	0.973
12	4258	22.5	2.3091675326379
12	4279	22.6	0.973
12	4300	22.7	2.1729914469992
12	4321	22.8	1.3460262683943
12	4342	22.9	1.7631056492959
12	4363	23	1.6434825895507
12	4384	23.1	2.2840995452166
12	4405	23.2	1.6121926387216
12	4426	23.3	1.402364338134
12	4447	23.4	2.3703795446075
12	4468	23.5	1.4633470497784
12	4489	23.6	1.5837642705787
12	4510	23.7	2.4617151331776
12	4531	23.8	0.973
12	4552	23.9	1.9235286958424
12	4573	24	1.2492978979153
12	4594	24.1	2.3439335615655
12	4615	24.2	0.973
12	4636	24.3	2.1186827142267
12	4657	24.4	2.2206136875933
12	4678	24.5	0.973
12	4699	24.6	1.9429579843645
12	4720	24.7	2.4292301970254
12	4741	24.8	1.2592919062833
12	4762	24.9	1.3943054809235
12	4783	25	1.4181038607204
12	4804	25.1	2.8852085330883
12	4825	25.2	0.973
12	4846	25.3	2.4799920299707
12	4867	25.4	0.973
12	4888	25.5	2.1866982643455
12	4909	25.6	1.4377388190153
12	4930	25.7	2.0418617521826
12	4951	25.8	1.6536707871489
12	4972	25.9	2.1550943304411
12	4993	26	1.3410502975266
12	5014	26.1	1.5147725883243
12	5035	26.2	1.583627409195
12	5056	26.3	1.8506336473109
12	5077	26.4	1.7926244572137
12	5098	26.5	1.5103608662768
12	5119	26.6	2.4066467144076
12	5140	26.7	1.281784150456
12	5161	26.8	1.9993351332684
12	5182	26.9	1.8088102041456
12	5203	27	1.6855903466573
12	5224	27.1	1.7336640033909
12	5245	27.2	1.828451621543
12	5266	27.3	1.3368404031131
12	5287	27.4	1.9637826489066
12	5308	27.5	0.973
12	5329	27.6	2.0940998110224
12	5350	27.7	2.3284517576835
12	5371	27.8	1.4337239360976
12	5392	27.9	1.8274004643986
12	5413	28	0.973
12	5434	28.1	1.6162301206876
12	5455	28.2	1.6898668037604
12	5476	28.3	2.0249693740359
12	5497	28.4	2.2183823156285
12	5518	28.5	1.745013219001
12	5539	28.6	0.973
12	5560	28.7	2.1343114764368
12	5581	28.8	1.3743875377768
12	5602	28.9	2.0110080551506
12	5623	29	1.5180177846839
12	5644	29.1	1.9916768283258
12	5665	29.2	1.4029157856895
12	5686	29.3	1.976142190128
12	5707	29.4	1.8518456486739
12	5728	29.5	1.8775091358494
12	5749	29.6	2.0703638770132
12	5770	29.7	1.3308107524888
12	5791	29.8	2.1004249992582
12	5812	29.9	0.973
12	5833	30	2.7355918366426
12	5854	30.1	0.973
12	5875	30.2	1.6405102007464
12	5896	30.3	1.9560080149001
12	5917	30.4	1.8712728353598
12	5938	30.5	2.2393135954434
12	5959	30.6	1.3354319782787
12	5980	30.7	1.8758389878352
12	6001	30.8	1.8744081277119
12	6022	30.9	1.2574963220823
12	6043	31	2.0762795242435
12	6064	31.1	0.973
12	6085	31.2	1.728285100856
12	6106	31.3	2.5470341928503
12	6127	31.4	1.9079393183281
12	6148	31.5	1.6189546922612
12	6169	31.6	1.3344638510606
12	6190	31.7	1.4318546429939
12	6211	31.8	2.3804124323537
12	6232	31.9	1.6721364555639
12	6253	32	0.973
12	6274	32.1	2.2721563300684
12	6295	32.2	1.4676713268908
12	6316	32.3	2.206615393696
12	6337	32.4	1.8896095515953
12	6358	32.5	1.1990420809677
12	6379	32.6	1.7704561082771
12	6400	32.7	2.1330951530131
12	6421	32.8	0.973
12	6442	32.9	1.8194955427464
12	6463	33	1.5819816519124
12	6484	33.1	2.3672080232353
12	6505	33.2	0.973
12	6526	33.3	2.3918001883726
12	6547	33.4	1.3461840344028
12	6568	33.5	1.3851431177296
12	6589	33.6	2.6886117091596
12	6610	33.7	1.3406271928306
12	6631	33.8	0.973
12	6652	33.9	1.7556899908364
12	6673	34	2.1078542099076
12	6694	34.1	1.3065506784522
12	6715	34.2	1.6149348795281
12	6736	34.3	1.875725419051
12	6757	34.4	1.6851848997946
12	6778	34.5	2.6783562341414
12	6799	34.6	0.973
12	6820	34.7	1.6548512914003
12	6841	34.8	1.8387333600636
12	6862	34.9	1.4816208177772
12	6883	35	2.6911365291647
12	6904	35.1	0.973
12	6925	35.2	1.7691363520708
12	6946	35.3	2.3189350954702
12	6967	35.4	1.7257701910603
12	6988	35.5	1.2476365725884
12	7009	35.6	2.0846376583822
12	7030	35.7	0.973
12	7051	35.8	2.1641591648342
12	7072	35.9	1.296081003295
12	7093	36	1.4579839301388
12	7114	36.1	2.594334463718
12	7135	36.2	1.9217124446406
12	7156	36.3	0.973
12	7177	36.4	2.1753273160974
12	7198	36.5	0.973
12	7219	36.6	2.1474845974165
12	7244	36.7	1.2696064952661
12	7269	36.8	2.2864698295727
12	7294	36.9	1.7461815176051
12	7319	37	2.217317904885
12	7344	37.1	1.4438259120555
12	7369	37.2	2.1401876889264
12	7394	37.3	1.5531910809278
12	7419	37.4	0.973
12	7444	37.5	2.628163580244
12	7469	37.6	1.2974539062162
12	7494	37.7	0.973
12	7519	37.8	1.9346996531555
12	7544	37.9	1.7229301710674
12	7569	38	2.3576881335868
12	7594	38.1	1.4019481797532
12	7619	38.2	1.5449392951484
12	7644	38.3	1.2055593914853
12	7669	38.4	2.7159826287984
12	7694	38.5	1.6670982641474
12	7719	38.6	1.7041800884344
12	7744	38.7	0.973
12	7769	38.8	2.0918216181613
12	7794	38.9	2.2292566958655
12	7819	39	0.973
12	7844	39.1	2.0974642222698
12	7869	39.2	0.973
12	7894	39.3	2.1123406656949
12	7919	39.4	2.0833253841565
12	7944	39.5	1.8686268264609
12	7969	39.6	1.6253673759907
12	7994	39.7	1.2957249580621
12	8019	39.8	1.3616416591208
12	8044	39.9	1.5737423460241
12	8069	40	2.5872202138049
12	8094	40.1	0.973
12	8119	40.2	2.329433935352
12	8144	40.3	1.3346011713697
12	8169	40.4	2.268902502332
12	8194	40.5	1.4193051252519
12	8219	40.6	2.0889403943909
12	8244	40.7	1.1877208019124
12	8269	40.8	1.4827890725978
12	8294	40.9	2.0214145175066
12	8319	41	1.8429178825903
12	8344	41.1	0.973
12	8369	41.2	2.6975575187399
12	8394	41.3	1.289996354017
12	8419	41.4	1.6324031402859
12	8444	41.5	1.3710556561452
12	8469	41.6	1.5008024101722
12	8494	41.7	2.5212419537191
12	8519	41.8	0.973
12	8544	41.9	1.9245169141235
12	8569	42	2.5395030411227
12	8594	42.1	0.973
12	8619	42.2	1.8874403637626
12	8644	42.3	1.6242752867779
12	8669	42.4	1.8423630753834
12	8696	42.5	1.7343746147155
12	8723	42.6	1.9904465833025
12	8750	42.7	0.973
12	8777	42.8	1.6840125018635
12	8804	42.9	2.479443237264
12	8831	43	0.973
12	8858	43.1	1.5357825936266
12	8885	43.2	2.2217948474799
12	8912	43.3	1.6128871683816
12	8939	43.4	2.4625771117302
12	8966	43.5	0.973
12	8993	43.6	1.9875683034592
12	9020	43.7	1.448979587363
12	9047	43.8	2.1505852069864
12	9074	43.9	2.5028989488641
12	9101	44	0.973
12	9128	44.1	1.7598130641244
12	9155	44.2	1.8211114892301
12	9182	44.3	2.3586370461852
12	9209	44.4	1.5018973085409
12	9236	44.5	0.973
12	9263	44.6	1.5763926462496
12	9290	44.7	2.2005298382183
12	9317	44.8	1.462014904262
12	9344	44.9	2.5299945166579
12	9371	45	0.973
12	9398	45.1	1.4397699538664
12	9425	45.2	1.899537454244
12	9452	45.3	1.8991361869722
12	9479	45.4	1.3343297068938
12	9506	45.5	1.8666096203605
12	9533	45.6	2.3299490785885
12	9560	45.7	0.973
12	9589	45.8	2.2587730381315
12	9618	45.9	1.6385418158653
12	9647	46	1.9100688272963
12	9676	46.1	1.2164146462273
12	9705	46.2	1.7387493015401
12	9734	46.3	1.7537966268277
12	9763	46.4	1.9732642023569
12	9792	46.5	1.7995655336868
12	9821	46.6	2.1064663550436
12	9850	46.7	0.973
12	9879	46.8	1.9623081998231
12	9908	46.9	2.0976609729534
12	9937	47	1.3792045203456
12	9966	47.1	2.5424119985644
12	9995	47.2	0.973
12	10024	47.3	2.8316351355649
12	10053	47.4	1.4903002141341
12	10082	47.5	0.973
12	10111	47.6	2.8719367656766
12	10140	47.7	0.973
12	10169	47.8	1.50055936072
12	10198	47.9	2.8160471666099
12	10227	48	0.973
12	10256	48.1	1.9698582261685
12	10285	48.2	0.973
12	10314	48.3	2.1010549795961
12	10343	48.4	1.5546442438187
12	10372	48.5	2.021367741777
12	10401	48.6	1.4996566851207
12	10430	48.7	2.1496496426081
12	10459	48.8	2.0786242159794
12	10488	48.9	0.973
12	10517	49	2.05742161947
12	10546	49.1	1.4616475758683
12	10575	49.2	1.2170499287815
12	10604	49.3	2.3404076285204
12	10633	49.4	1.948798339648
12	10662	49.5	1.5655138739982
12	10691	49.6	0.973
12	10720	49.7	1.7134683027394
12	10749	49.8	1.8367523548465
12	10778	49.9	1.6242587559387
12	10807	50	2.5975524596124
12	10836	50.1	1.9007054658793
12	10865	50.2	1.5458396677439
12	10894	50.3	1.8191488655078
12	10923	50.4	0.973
12	10952	50.5	2.6771819749788
12	10981	50.6	0.973
12	11010	50.7	2.7168879903708
12	11039	50.8	1.3775567560389
12	11068	50.9	2.0755482764544
12	11097	51	0.973
12	11126	51.1	2.2275606790984
12	11155	51.2	1.8220284690786
12	11184	51.3	1.8786602825696
12	11213	51.4	2.006386608967
12	11242	51.5	1.6128169161199
12	11271	51.6	0.973
12	11300	51.7	2.4820047958655
12	11329	51.8	1.2096754169977
12	11358	51.9	1.2856242121228
12	11387	52	2.7605907575992
12	11416	52.1	1.2861326163184
12	11445	52.2	2.0979056209433
12	11474	52.3	1.5350006935238
12	11503	52.4	0.973
12	11532	52.5	2.1071273459323
12	11561	52.6	2.435787859011
12	11590	52.7	1.6457549586315
12	11619	52.8	1.7588783355772
12	11648	52.9	1.2338896401403
12	11677	53	1.8888131098034
12	11706	53.1	1.3619884085844
12	11735	53.2	1.277960631148
12	11764	53.3	2.4029706294194
12	11793	53.4	2.0006582606049
12	11822	53.5	1.7605605889647
12	11851	53.6	0.973
12	11880	53.7	2.4423571131373
12	11909	53.8	1.3782295299684
12	11938	53.9	0.973
12	11967	54	1.9836562889116
12	11996	54.1	2.4333322842667
12	12025	54.2	1.2468120157636
12	12054	54.3	1.9054298120283
12	12083	54.4	1.5018303960922
12	12112	54.5	2.0930898283857
12	12141	54.6	1.9861417496882
12	12170	54.7	1.4681463068938
12	12199	54.8	0.973
12	12228	54.9	2.769814167342
12	12257	55	1.3465027902156
12	12286	55.1	1.5032417016752
12	12315	55.2	2.4803428102693
12	12344	55.3	1.4492629106024
12	12373	55.4	0.973
12	12402	55.5	2.6466636352471
12	12431	55.6	1.8771798406453
12	12460	55.7	0.973
12	12489	55.8	1.4915150717635
12	12518	55.9	2.3732804066973
12	12547	56	1.6697534602729
12	12576	56.1	0.973
12	12605	56.2	1.6324437556046
12	12634	56.3	2.3295937429306
12	12663	56.4	0.973
12	12696	56.5	2.0700917457559
12	12733	56.6	1.6503072812349
12	12770	56.7	1.9430508199447
12	12807	56.8	2.2832890805436
12	12844	56.9	0.973
12	12881	57	2.6121137084711
12	12918	57.1	1.430532037412
12	12955	57.2	1.4324607131841
12	12992	57.3	1.6475604011046
12	13029	57.4	1.929320809055
12	13066	57.5	1.2731470053804
12	13103	57.6	2.435990549788
12	13140	57.7	1.5014484894929
12	13177	57.8	1.2377538105833
12	13214	57.9	2.0462395350684
12	13251	58	2.1023667886602
12	13288	58.1	2.0229562535775
12	13325	58.2	1.4240519321551
12	13362	58.3	1.7187491319766
12	13399	58.4	1.2594473825704
12	13436	58.5	2.1695534823616
12	13473	58.6	1.3902965587224
12	13510	58.7	1.9038552135488
12	13547	58.8	2.1586985814526
12	13584	58.9	0.973
12	13621	59	2.218674798044
12	13658	59.1	0.973
12	13695	59.2	2.8857231486404
12	13732	59.3	1.5892577992327
12	13769	59.4	1.6980839013891
12	13806	59.5	1.2686564991776
12	13843	59.6	2.0617831757194
12	13880	59.7	1.4430986192921
12	13917	59.8	1.4171230589288
12	13954	59.9	2.416980709832
12	13991	60	0.973
12	14028	60.1	2.0495939367677
12	14065	60.2	1.6828964635286
12	14102	60.3	2.3827160885077
12	14139	60.4	0.973
12	14178	60.5	1.8270041646976
12	14217	60.6	1.6538360005734
12	14256	60.7	1.8946715259142
12	14295	60.8	2.2900958489814
12	14334	60.9	1.2111422183244
12	14373	61	1.7077842318273
12	14412	61.1	1.5530503091589
12	14451	61.2	2.3771079536203
12	14490	61.3	1.8150059750621
12	14529	61.4	1.672979278371
12	14568	61.5	1.3330886761804
12	14607	61.6	1.2200254985413
12	14646	61.7	2.1836669909427
12	14685	61.8	0.973
12	14724	61.9	2.2290539216952
12	14763	62	1.8306200183648
12	14802	62.1	1.8707146007229
12	14841	62.2	1.7028471349352
12	14880	62.3	2.0984630176867
12	14919	62.4	1.2152315204141
12	14958	62.5	0.973
12	14997	62.6	1.7474631374474
12	15036	62.7	1.8065618512675
12	15075	62.8	1.5342000632883
12	15116	62.9	2.5481105606943
12	15157	63	0.973
12	15198	63.1	2.8406888445567
12	15239	63.2	1.3239132288062
12	15280	63.3	2.0825071292309
12	15321	63.4	0.973
12	15362	63.5	2.4641442931669
12	15403	63.6	0.973
12	15444	63.7	1.7732845002386
12	15485	63.8	2.0792664444297
12	15526	63.9	2.2081744650112
12	15567	64	1.5739716904594
12	15608	64.1	1.8797358583403
12	15649	64.2	0.973
12	15690	64.3	1.9368593998942
12	15731	64.4	2.0667334092733
12	15772	64.5	1.5587232982266
12	15813	64.6	2.1966574431381
12	15854	64.7	0.973
12	15895	64.8	1.5603077596918
12	15936	64.9	2.0730063156161
12	15977	65	1.6732747697136
12	16018	65.1	1.349743051993
12	16059	65.2	1.7287108998853
12	16100	65.3	2.0906756726015
12	16141	65.4	1.4888864034175
12	16182	65.5	1.7149238036089
12	16223	65.6	1.4772780539276
12	16264	65.7	2.0917726819453
12	16305	65.8	1.4258463254242
12	16346	65.9	2.7989910976943
12	16387	66	0.973
12	16428	66.1	1.6547419882781
12	16469	66.2	1.9713234625232
12	16510	66.3	1.880861092464
12	16551	66.4	1.4842636031912
12	16592	66.5	1.5972856384749
12	16633	66.6	1.3441889569204
12	16674	66.7	1.7582221331939
12	16715	66.8	2.4231788054494
12	16756	66.9	0.973
12	16797	67	1.7878290476811
12	16838	67.1	2.4704558478803
12	16879	67.2	1.2555160320396
12	16920	67.3	1.7908189283785
12	16961	67.4	2.2792287935588
12	17002	67.5	0.973
12	17043	67.6	1.4258741255016
12	17084	67.7	2.4316308763668
12	17125	67.8	2.13291970099
12	17166	67.9	1.507934966109
12	17207	68	1.7635633339178
12	17248	68.1	0.973
12	17289	68.2	2.1058486749068
12	17330	68.3	2.3484124152347
12	17371	68.4	0.973
12	17412	68.5	2.1479160733374
12	17453	68.6	2.0342125010748
12	17494	68.7	0.973
12	17535	68.8	1.8518668893467
12	17576	68.9	2.1292685204186
12	17617	69	1.9935762114388
12	17658	69.1	0.973
12	17699	69.2	2.1599513551865
12	17740	69.3	1.2603344885112
12	17781	69.4	1.9690841585054
12	17822	69.5	2.2694681341117
12	17863	69.6	1.3917405339771
12	17904	69.7	0.973
12	17945	69.8	2.6472682071316
12	17986	69.9	1.7053068873918
12	18027	70	1.7114430841589
12	18068	70.1	1.8230692094134
12	18109	70.2	0.973
12	18150	70.3	1.3163183893885
12	18191	70.4	2.8742822933668
12	18232	70.5	0.973
12	18273	70.6	2.2221991145481
12	18314	70.7	0.973
12	18355	70.8	1.7151287165863
12	18396	70.9	2.0354981223833
12	18437	71	1.8342156284838
12	18478	71.1	1.6573759618314
12	18519	71.2	0.973
12	18560	71.3	2.3531724730604
12	18601	71.4	1.3406428632741
12	18642	71.5	1.9179382274041
12	18683	71.6	1.8484486100496
12	18724	71.7	1.7054042390511
12	18765	71.8	2.1779357270595
12	18806	71.9	0.973
12	18847	72	2.3860066209259
12	18888	72.1	1.3415231732662
12	18929	72.2	0.973
12	18970	72.3	2.1043936555006
12	19015	72.4	1.5171094169527
12	19060	72.5	2.0522657536438
12	19105	72.6	1.729887331218
12	19150	72.7	1.2855816179552
12	19195	72.8	2.7035626398452
12	19240	72.9	0.973
12	19285	73	1.2543534952982
12	19330	73.1	2.2577040021765
12	19375	73.2	2.1314898913122
12	19420	73.3	0.973
12	19465	73.4	2.476033995633
12	19510	73.5	0.973
12	19559	73.6	1.9238398895278
12	19608	73.7	1.2051142599055
12	19657	73.8	2.1303556712091
12	19706	73.9	1.4509328343332
12	19755	74	2.7736037252454
12	19804	74.1	0.973
12	19853	74.2	2.8761612689602
12	19902	74.3	1.4134201227212
12	19951	74.4	0.973
12	20000	74.5	2.9091835170664
12	20049	74.6	0.973
12	20098	74.7	1.6715833499439
12	20147	74.8	2.2537641356695
12	20196	74.9	1.9550836959439
12	20245	75	0.973
12	20294	75.1	2.1316319228556
12	20343	75.2	2.1572959091807
12	20392	75.3	0.973
12	20441	75.4	1.7600989044907
12	20490	75.5	2.2320260840125
12	20539	75.6	1.2599597449856
12	20588	75.7	2.2750443656424
12	20637	75.8	1.3867134859111
12	20686	75.9	2.0824050576766
12	20735	76	1.5854653718521
12	20784	76.1	2.1224122853999
12	20833	76.2	0.973
12	20882	76.3	2.5698083909013
12	20931	76.4	1.9642878638389
12	20980	76.5	1.6712343585672
12	21029	76.6	1.8881583160806
12	21078	76.7	0.973
12	21127	76.8	1.9123421671374
12	21176	76.9	1.4303269778559
12	21225	77	2.0843432590929
12	21274	77.1	1.3614348322943
12	21323	77.2	1.8418557277676
12	21372	77.3	1.6169275762904
12	21421	77.4	2.1908207116315
12	21470	77.5	1.416563488932
12	21523	77.6	2.3143521074463
12	21576	77.7	1.5427703842566
12	21629	77.8	1.9114198449693
12	21682	77.9	1.4237922750824
12	21735	78	1.933839349293
12	21788	78.1	1.5128609250423
12	21841	78.2	0.973
12	21894	78.3	2.5495510091217
12	21947	78.4	0.973
12	22000	78.5	2.1576393322211
12	22053	78.6	2.0518954593513
12	22106	78.7	0.973
12	22159	78.8	2.02113395788
12	22212	78.9	2.1869567642276
12	22265	79	0.973
12	22318	79.1	2.1762021735081
12	22371	79.2	1.8173245191258
12	22424	79.3	1.7565636044578
12	22477	79.4	1.2577955198203
12	22530	79.5	2.2641446863208
12	22583	79.6	0.973
12	22636	79.7	2.3704443233765
12	22689	79.8	1.4072988941493
12	22742	79.9	1.7924812522541
12	22795	80	1.2570921066357
12	22848	80.1	1.6783514129418
12	22901	80.2	2.6126903608555
12	22954	80.3	1.2152508461957
12	23007	80.4	1.3257785725834
12	23060	80.5	2.2924929485043
12	23113	80.6	0.973
12	23166	80.7	2.5346815415419
12	23219	80.8	1.3049436870763
12	23272	80.9	1.6279266144414
12	23325	81	2.2966740973144
12	23378	81.1	1.9947060302608
12	23431	81.2	1.2129906775093
12	23484	81.3	0.973
12	23537	81.4	2.4742767702157
12	23590	81.5	0.973
12	23643	81.6	2.4876213136497
12	23696	81.7	1.5108875591447
12	23749	81.8	1.4399527367699
12	23802	81.9	2.2201667956062
12	23855	82	1.400773790836
12	23916	82.1	1.3126239102509
12	23977	82.2	2.629406509706
12	24038	82.3	0.973
12	24099	82.4	1.6713916379777
12	24160	82.5	1.7014208847429
12	24221	82.6	2.1960786074166
12	24282	82.7	0.973
12	24343	82.8	2.2304344580029
12	24404	82.9	1.8232146630479
12	24467	83	1.4291800783785
12	24530	83.1	1.577537532612
12	24593	83.2	2.1488911845823
12	24656	83.3	1.2274824938062
12	24719	83.4	1.4007571726284
12	24782	83.5	2.5752766607787
12	24845	83.6	0.973
12	24908	83.7	1.4590453316721
12	24971	83.8	1.7697632213882
12	25034	83.9	2.4842347623445
12	25097	84	1.2744938494941
12	25160	84.1	1.7598591677132
12	25223	84.2	1.5112320326222
12	25286	84.3	1.696793953175
12	25349	84.4	2.0890589690252
12	25412	84.5	1.5717371709418
12	25475	84.6	1.9419660490713
12	25538	84.7	2.344142772372
12	25601	84.8	0.973
12	25664	84.9	1.9784263322647
12	25727	85	2.1246142882522
12	25790	85.1	0.973
12	25853	85.2	1.7799458346274
12	25916	85.3	1.8372682052649
12	25979	85.4	2.55917731432
12	26042	85.5	1.7862386262691
12	26105	85.6	0.973
12	26168	85.7	2.1935126303053
12	26231	85.8	2.4916192538838
12	26294	85.9	0.973
12	26357	86	1.6355467514395
12	26420	86.1	1.6930596790743
12	26483	86.2	1.2653560930182
12	26546	86.3	2.0629830277918
12	26609	86.4	2.4661480831735
12	26672	86.5	1.4171573588717
12	26735	86.6	1.4858662525498
12	26798	86.7	1.8230770714156
12	26861	86.8	1.8405600571841
12	26924	86.9	1.5064192888532
12	26987	87	2.2615005601038
12	27050	87.1	1.6590507058711
12	27113	87.2	0.973
12	27176	87.3	1.9688022442607
12	27239	87.4	2.5456820340649
12	27302	87.5	0.973
12	27365	87.6	1.3134903736387
12	27428	87.7	2.0542333558841
12	27491	87.8	1.6940454692158
12	27554	87.9	2.2781049134821
12	27617	88	1.9047033180562
12	27680	88.1	1.7110358556595
12	27743	88.2	1.8337020835971
12	27806	88.3	0.973
12	27869	88.4	2.8522631925902
12	27932	88.5	0.973
12	27995	88.6	1.9979066910631
12	28058	88.7	1.7794850062571
12	28121	88.8	2.2445132670146
12	28184	88.9	1.8177066614866
12	28247	89	1.657612126382
12	28310	89.1	1.7937086045563
12	28373	89.2	0.973
12	28436	89.3	2.7637704605916
12	28499	89.4	0.973
12	28562	89.5	1.9590616503259
12	28625	89.6	1.3095158601443
12	28688	89.7	1.8487463302412
12	28751	89.8	1.3615702214274
12	28814	89.9	2.0320374555763
12	28877	90	2.2859375694072
12	28940	90.1	1.4594031052949
12	29003	90.2	1.62696991544
12	29066	90.3	0.973
12	29129	90.4	2.949665841338
12	29192	90.5	1.6444292124405
12	29255	90.6	0.973
12	29318	90.7	1.595087988228
12	29381	90.8	1.9467003016876
12	29444	90.9	1.8657530700553
12	29507	91	1.5136479741597
12	29570	91.1	2.7518240850886
12	29633	91.2	1.40580587321
12	29696	91.3	1.624387664595
12	29759	91.4	2.0134471224705
12	29822	91.5	0.973
12	29885	91.6	1.4931353116902
12	29948	91.7	2.3158061506377
12	30011	91.8	1.8980645666959
12	30074	91.9	1.3945443531912
12	30137	92	2.0410243672123
12	30200	92.1	1.5403645057665
12	30263	92.2	1.251994271287
12	30326	92.3	2.0729381948376
12	30389	92.4	2.2157545052036
12	30452	92.5	1.388838504399
12	30515	92.6	1.374231607134
12	30578	92.7	1.6042313910158
12	30641	92.8	1.5091332412193
12	30704	92.9	2.8169605367236
12	30767	93	1.3518453087327
12	30830	93.1	0.973
12	30893	93.2	1.5762002320543
12	30956	93.3	1.6778750351797
12	31019	93.4	2.3501609868788
12	31082	93.5	1.6724282096211
12	31145	93.6	1.7866256153753
12	31208	93.7	1.9272506229063
12	31275	93.8	1.8207425165948
12	31342	93.9	1.9070257276462
12	31409	94	0.973
12	31476	94.1	1.4509151651007
12	31543	94.2	1.9137180564007
12	31610	94.3	2.5321494545633
12	31677	94.4	0.973
12	31744	94.5	2.4474280099363
12	31811	94.6	1.5313521769846
12	31878	94.7	1.3824964477545
12	31945	94.8	1.6183442586863
12	32012	94.9	2.1029500163121
12	32079	95	1.8723916557777
12	32146	95.1	0.973
12	32213	95.2	2.5306100484461
12	32280	95.3	1.367771493358
12	32347	95.4	1.9237870988117
12	32414	95.5	1.8256897732654
12	32481	95.6	1.6277549214
12	32548	95.7	1.2870622776228
12	32615	95.8	1.5919069593921
12	32682	95.9	2.1591388580335
12	32749	96	2.0058450328677
12	32816	96.1	1.8190003287425
12	32883	96.2	0.973
12	32950	96.3	1.6695928163967
12	33017	96.4	2.2866587177458
12	33084	96.5	1.4714064663266
12	33151	96.6	1.7348436812591
12	33218	96.7	2.2733306800745
12	33285	96.8	0.973
12	33352	96.9	2.3746018790153
12	33419	97	0.973
12	33486	97.1	2.1247545827482
12	33553	97.2	1.9967450039804
12	33620	97.3	1.9270270947339
12	33687	97.4	1.7102677502929
12	33754	97.5	1.5237876274894
12	33821	97.6	1.553271861084
12	33888	97.7	1.2868045384837
12	33955	97.8	2.2560264984266
12	34022	97.9	1.4973023837096
12	34089	98	1.2665894686278
12	34156	98.1	1.5482637685028
12	34223	98.2	2.9173508851331
12	34290	98.3	1.6566461889749
12	34357	98.4	1.5637160629651
12	34424	98.5	1.5545458905069
12	34491	98.6	1.996491081927
12	34558	98.7	0.973
12	34625	98.8	2.2427879612542
12	34692	98.9	2.1161175301496
12	34759	99	0.973
12	34826	99.1	2.1948806250952
12	34893	99.2	1.5459859633067
12	34960	99.3	1.4454907318787
12	35027	99.4	1.9285218757729
12	35094	99.5	2.0928245740232
12	35161	99.6	0.973
12	35228	99.7	2.1329172690416
12	35295	99.8	0.973
12	35362	99.9	1.686358393245
12	35429	100	2.9065673397099
12	35496	100.1	0.973
12	35563	100.2	2.2255444269579
12	35630	100.3	1.2918533445639
12	35697	100.4	2.0659090347658
12	35764	100.5	1.2083857187209
12	35831	100.6	1.5853378003756
12	35898	100.7	1.3607894572253
12	35965	100.8	2.4957344337395
12	36032	100.9	1.5050728169605
12	36099	101	1.2579842579735
12	36166	101.1	2.5109290267207
12	36233	101.2	1.2202311653138
12	36300	101.3	2.3339754393806
12	36367	101.4	1.4847033590542
12	36434	101.5	0.973
12	36501	101.6	2.6701878662841
12	36568	101.7	0.973
12	36635	101.8	1.5560160292483
12	36702	101.9	1.6551409464104
12	36769	102	2.1791990742047
12	36836	102.1	1.3951150412241
12	36903	102.2	2.4182804463276
12	36970	102.3	0.973
12	37037	102.4	1.3999849789809
12	37104	102.5	1.7064855209739
12	37171	102.6	2.2930082813718
12	37238	102.7	1.9194258722853
12	37305	102.8	0.973
12	37372	102.9	2.4748449881951
12	37439	103	1.9359830409569
12	37506	103.1	1.2696215695344
12	37573	103.2	1.6301551364
12	37640	103.3	2.2931713554083
12	37707	103.4	1.2265711706312
12	37774	103.5	1.933543763016
12	37841	103.6	1.4425846538259
12	37908	103.7	1.8536253913231
12	37975	103.8	0.973
12	38042	103.9	2.2739223872744
12	38109	104	2.1687656370268
12	38176	104.1	1.4790882194312
12	38243	104.2	1.7364276146511
12	38310	104.3	1.6621252723507
12	38377	104.4	0.973
12	38444	104.5	1.6961260025619
12	38511	104.6	1.7639280874746
12	38578	104.7	2.0187838647703
12	38645	104.8	2.5798033837048
12	38712	104.9	1.2421141037215
12	38779	105	0.973
12	38846	105.1	1.8513082193973
12	38913	105.2	1.9319058867289
12	38980	105.3	2.2281683377665
12	39047	105.4	1.4115509231389
12	39114	105.5	1.5033421371259
12	39181	105.6	1.806670130557
12	39248	105.7	1.8640207775443
12	39315	105.8	2.3366108760686
12	39382	105.9	0.973
12	39449	106	1.9811733462739
12	39516	106.1	0.973
12	39583	106.2	1.9127785363848
12	39650	106.3	1.4122204276667
12	39717	106.4	1.9879884164405
12	39784	106.5	1.5644607996316
12	39851	106.6	1.5469040721159
12	39918	106.7	2.1093434699983
12	39985	106.8	1.1881891410088
12	40052	106.9	2.5294464037325
12	40119	107	0.973
12	40186	107.1	2.014447696094
12	40253	107.2	2.2785404619422
12	40320	107.3	1.4428521576063
12	40387	107.4	1.3117298011657
12	40454	107.5	1.6925443559315
12	40521	107.6	2.4510714355055
12	40588	107.7	1.3115996431959
12	40655	107.8	2.1519202303549
12	40722	107.9	0.973
12	40789	108	2.1362924332082
12	40856	108.1	0.973
12	40923	108.2	2.1367478061022
12	40990	108.3	1.8476950678251
12	41053	108.4	1.306809082308
12	41116	108.5	1.7158689054508
12	41179	108.6	1.6241065886735
12	41242	108.7	1.5051360306893
12	41305	108.8	2.3717994322159
12	41368	108.9	1.6070556950549
12	41431	109	1.2468863810324
12	41494	109.1	1.698667072248
12	41557	109.2	2.5393837350537
12	41620	109.3	1.2070425578337
12	41683	109.4	1.9920353777278
12	41746	109.5	1.4940467852347
12	41809	109.6	1.7756442473257
12	41872	109.7	2.0388088402317
12	41935	109.8	0.973
12	41998	109.9	1.4704782508501
12	42061	110	2.2432429192059
12	42124	110.1	2.1551760157502
12	42187	110.2	0.973
12	42250	110.3	2.6667775730726
12	42313	110.4	1.3167366677215
12	42376	110.5	0.973
12	42439	110.6	2.1365471649026
12	42502	110.7	1.3838732849204
12	42565	110.8	2.0371360314001
12	42628	110.9	1.4455985509404
12	42691	111	1.6483028120777
12	42754	111.1	2.4277546792207
12	42817	111.2	1.9733885805356
12	42880	111.3	0.973
12	42943	111.4	2.0764611806307
12	43006	111.5	2.1195182399419
12	43069	111.6	0.973
12	43132	111.7	2.42383659697
12	43195	111.8	1.5152246908275
12	43258	111.9	0.973
12	43321	112	2.7054485233961
12	43384	112.1	1.3542952973504
12	43447	112.2	2.0801017547942
12	43510	112.3	0.973
12	43573	112.4	2.2453670939424
12	43636	112.5	2.0870137809709
12	43699	112.6	0.973
12	43762	112.7	2.253895661557
12	43825	112.8	1.7878601297757
12	43888	112.9	1.5531132009202
12	43951	113	2.1315090410085
12	44014	113.1	1.6702678608585
12	44077	113.2	1.6381755662111
12	44140	113.3	1.8832582492993
12	44203	113.4	1.2920468368248
12	44266	113.5	1.5803679025198
12	44329	113.6	2.5122943405793
12	44392	113.7	0.973
12	44455	113.8	1.9953486809425
12	44518	113.9	1.6533713459045
12	44581	114	1.7892409708973
12	44644	114.1	2.5725366525084
12	44707	114.2	1.2145606020844
12	44770	114.3	1.7671875063072
12	44833	114.4	1.4347746309621
12	44896	114.5	2.0041699758498
12	44959	114.6	1.3984057266284
12	45022	114.7	1.7493656668485
12	45085	114.8	1.7011667664641
12	45148	114.9	1.8201156029705
12	45211	115	2.3140962983003
12	45274	115.1	0.973
12	45337	115.2	1.6948697834016
12	45400	115.3	1.5648763716945
12	45463	115.4	2.5697358438248
12	45526	115.5	1.794936367202
12	45589	115.6	1.4511304501861
12	45652	115.7	1.8113054205709
12	45715	115.8	0.973
12	45778	115.9	1.9758177501506
12	45841	116	1.5358122500299
12	45904	116.1	2.1414091656605
12	45967	116.2	2.1381578529173
12	46030	116.3	1.7032869290974
12	46093	116.4	1.3956659558413
12	46156	116.5	1.9496744399886
12	46219	116.6	0.973
12	46282	116.7	2.0000615375475
12	46345	116.8	1.6082479371286
12	46408	116.9	1.9711265163762
12	46471	117	2.2327138439313
12	46534	117.1	1.5368722046902
12	46597	117.2	1.4356630180625
12	46660	117.3	2.0551374332132
12	46723	117.4	1.9423672576358
12	46786	117.5	0.973
12	46849	117.6	1.726257900761
12	46912	117.7	2.2205466612999
12	46975	117.8	0.973
12	47038	117.9	2.245846200352
12	47101	118	0.973
12	47164	118.1	1.9827447675225
12	47227	118.2	1.8171039522992
12	47290	118.3	2.2033945513215
12	47353	118.4	1.3063865902603
12	47416	118.5	1.2602366812022
12	47479	118.6	2.4669630359957
12	47542	118.7	0.973
12	47605	118.8	1.6722668399722
12	47668	118.9	2.4534650640515
12	47731	119	1.275302087295
12	47794	119.1	1.4476148768551
12	47857	119.2	2.7647501540993
12	47920	119.3	0.973
12	47983	119.4	2.5920915273054
12	48046	119.5	0.973
12	48109	119.6	1.951198998921
12	48172	119.7	2.12983159731
12	48235	119.8	1.9668351188456
12	48298	119.9	0.973
12	48353	120	1.45244957097
12	48408	120.1	1.7529176219553
12	48463	120.2	1.9652198063017
12	48518	120.3	1.3065090589008
12	48573	120.4	2.1833965364215
12	48628	120.5	2.2183059432436
12	48683	120.6	1.429466042479
12	48738	120.7	1.839089222089
12	48791	120.8	0.973
12	48844	120.9	2.4945259406253
12	48897	121	0.973
12	48950	121.1	2.3195345187333
12	49003	121.2	2.1608620684014
12	49056	121.3	1.8467444925078
12	49109	121.4	1.3484875778281
12	49162	121.5	2.0351639565364
12	49215	121.6	0.973
12	49268	121.7	2.0003932009692
12	49321	121.8	0.973
12	49374	121.9	1.7965907116965
12	49427	122	2.7099757921192
12	49480	122.1	1.4116860511015
12	49533	122.2	1.637439694351
12	49586	122.3	1.5958615695485
12	49639	122.4	1.4438071951696
12	49692	122.5	2.0916147314322
12	49745	122.6	1.8066619223458
12	49798	122.7	1.9220807101023
12	49851	122.8	0.973
12	49904	122.9	2.8474715720495
12	49957	123	0.973
12	50010	123.1	2.5224642890617
12	50063	123.2	0.973
12	50116	123.3	2.1395794070882
12	50169	123.4	0.973
12	50222	123.5	2.7996317997732
12	50275	123.6	1.6408092483447
12	50328	123.7	0.973
12	50381	123.8	2.1073006512321
12	50434	123.9	2.0686124833397
12	50487	124	2.1137625227268
12	50540	124.1	1.4358739538259
12	50593	124.2	1.8268114906952
12	50646	124.3	1.6493073663984
12	50699	124.4	0.973
12	50752	124.5	1.749293162785
12	50805	124.6	1.9386170674967
12	50858	124.7	2.0117006999401
12	50911	124.8	1.2707470647188
12	50964	124.9	2.139708208292
12	51017	125	1.8891794892174
12	51070	125.1	1.8334261439863
12	51123	125.2	0.973
12	51176	125.3	2.4010729193099
12	51229	125.4	1.5878551053227
12	51282	125.5	2.0237823402764
12	51335	125.6	0.973
12	51388	125.7	2.3555725041572
12	51441	125.8	1.8305524366042
12	51494	125.9	1.1910220645303
12	51547	126	2.3885414946233
12	51600	126.1	1.8148977756922
12	51653	126.2	0.973
12	51702	126.3	1.8376095706966
12	51751	126.4	1.9149514545919
12	51800	126.5	2.1618324293818
12	51849	126.6	1.2411908858028
12	51898	126.7	1.7018906139714
12	51947	126.8	2.1147788068652
12	51996	126.9	2.0521548436956
12	52045	127	0.973
12	52094	127.1	2.2526252037476
12	52143	127.2	1.3373239278854
12	52192	127.3	2.3669375824834
12	52241	127.4	1.295315238438
12	52290	127.5	1.9270716009426
12	52339	127.6	1.780928536322
12	52388	127.7	2.0458947577875
12	52437	127.8	1.5739369106926
12	52486	127.9	1.9317401777868
12	52535	128	1.4398709202319
12	52584	128.1	0.973
12	52633	128.2	1.880863770386
12	52682	128.3	1.6484273125261
12	52731	128.4	2.5635549873338
12	52780	128.5	0.973
12	52825	128.6	1.9426154975388
12	52870	128.7	2.0666644382986
12	52915	128.8	1.7935813663433
12	52960	128.9	1.7099809204728
12	53005	129	0.973
12	53050	129.1	1.5453931491907
12	53095	129.2	1.8065999260781
12	53140	129.3	2.4375069871138
12	53185	129.4	0.973
12	53230	129.5	2.0163172106317
12	53275	129.6	1.3799744079673
12	53316	129.7	2.1415545884014
12	53357	129.8	1.587115610044
12	53398	129.9	1.4716497129187
12	53439	130	2.5919135618553
12	53480	130.1	0.973
12	53521	130.2	1.9380299185627
12	53562	130.3	1.420410877405
12	53603	130.4	1.2732115578564
12	53644	130.5	2.4366797308256
12	53685	130.6	1.7217235312754
12	53726	130.7	1.2190996929799
12	53767	130.8	1.9045239751009
12	53808	130.9	2.0391370261251
12	53849	131	1.3486354461616
12	53890	131.1	2.0817133708445
12	53931	131.2	2.0616501639893
12	53972	131.3	1.3245809418525
12	54013	131.4	1.8689614671765
12	54054	131.5	1.8697877372927
12	54095	131.6	0.973
12	54136	131.7	2.0185357318871
12	54177	131.8	1.8356839734151
12	54218	131.9	1.8429680486029
12	54259	132	1.6580153374563
12	54300	132.1	1.9199970937605
12	54341	132.2	1.3273029306817
12	54382	132.3	1.5139519980133
12	54423	132.4	1.9537313300167
12	54464	132.5	1.4016250508429
12	54505	132.6	2.9014263355782
12	54546	132.7	1.2728643627929
12	54587	132.8	1.3503271378909
12	54628	132.9	1.9795473537876
12	54669	133	1.3223013714593
12	54710	133.1	1.4598871456775
12	54751	133.2	2.5261560940105
12	54792	133.3	0.973
12	54833	133.4	2.1238671412005
12	54874	133.5	1.8481027410983
12	54915	133.6	2.3125012375009
12	54956	133.7	1.332112644517
12	54997	133.8	1.3408207475932
12	55038	133.9	1.6704581033205
12	55079	134	1.7780228159573
12	55120	134.1	1.9296071311978
12	55161	134.2	2.1112283422308
12	55202	134.3	1.8603466414245
12	55243	134.4	0.973
12	55284	134.5	1.5184451808686
12	55325	134.6	1.6580916869278
12	55366	134.7	1.7508134163376
12	55407	134.8	1.8648879030717
12	55448	134.9	1.657183367212
12	55489	135	2.2470049241683
12	55530	135.1	1.7899121889174
12	55571	135.2	1.8860602971318
12	55612	135.3	1.5356768302147
12	55653	135.4	0.973
12	55694	135.5	2.6190952238081
12	55735	135.6	1.919424272642
12	55776	135.7	0.973
12	55817	135.8	1.9434662184859
12	55858	135.9	1.406590909118
12	55899	136	2.1821558154411
12	55940	136.1	1.2748445245081
12	55981	136.2	2.5682662338337
12	56022	136.3	0.973
12	56063	136.4	2.0421567150172
12	56104	136.5	1.9651868555394
12	56145	136.6	0.973
12	56186	136.7	2.3378499783393
12	56227	136.8	1.2953597029885
12	56268	136.9	1.8897773571124
12	56309	137	1.5807538218354
12	56350	137.1	1.6146893922904
12	56391	137.2	2.403652815954
12	56432	137.3	0.973
12	56473	137.4	2.4061101537611
12	56514	137.5	2.1216856313549
12	56555	137.6	1.5921653214938
12	56596	137.7	1.72695099131
12	56637	137.8	1.5095957837943
12	56678	137.9	0.973
12	56719	138	2.5337797862034
12	56760	138.1	1.7280165212967
12	56801	138.2	1.45999804858
12	56842	138.3	2.2615956909615
12	56883	138.4	0.973
12	56924	138.5	1.468911553005
12	56965	138.6	2.7259508048905
12	57006	138.7	1.6848201469704
12	57047	138.8	0.973
12	57088	138.9	1.7027794411937
12	57129	139	1.5193485727154
12	57170	139.1	2.2728863189215
12	57211	139.2	2.029245310853
12	57252	139.3	0.973
12	57293	139.4	2.7483813921622
12	57334	139.5	1.6314110730002
12	57375	139.6	0.973
12	57416	139.7	1.9094548450464
12	57457	139.8	2.0010529605347
12	57498	139.9	1.8320089519715
12	57539	140	0.973
12	57580	140.1	2.2766613019444
12	57621	140.2	1.8673944630886
12	57662	140.3	1.4130530974887
12	57703	140.4	2.1558616745104
12	57744	140.5	0.973
12	57785	140.6	1.9687310815568
12	57826	140.7	1.4838615716269
12	57867	140.8	1.8840385270713
12	57908	140.9	1.2252362032706
12	57947	141	2.699788949922
12	57986	141.1	0.973
12	58025	141.2	1.5600826454027
12	58064	141.3	2.5899933393589
12	58103	141.4	1.2412546870858
12	58142	141.5	2.0180783775499
12	58181	141.6	0.973
12	58220	141.7	1.8526230971083
12	58259	141.8	1.5637616552153
12	58298	141.9	2.2694570256498
12	58337	142	1.9838888138186
12	58376	142.1	0.973
12	58415	142.2	2.4016953436356
12	58454	142.3	1.6715669316679
12	58493	142.4	2.0555952970626
12	58532	142.5	0.973
12	58571	142.6	1.6340286716986
12	58610	142.7	2.3233904552202
12	58649	142.8	1.9734523346516
12	58688	142.9	1.4377752889443
12	58727	143	1.5438912139119
12	58766	143.1	2.3959202810091
12	58805	143.2	0.973
12	58844	143.3	1.6018039834212
12	58881	143.4	1.7298372759559
12	58918	143.5	1.6616790703856
12	58955	143.6	2.3643742589148
12	58992	143.7	1.6434803085255
12	59029	143.8	2.1558490922603
12	59066	143.9	1.5655636099164
12	59103	144	0.973
12	59140	144.1	2.5900045041581
12	59177	144.2	0.973
12	59214	144.3	1.7411786499373
12	59251	144.4	1.6795819307817
12	59288	144.5	2.6917546858574
12	59325	144.6	0.973
12	59362	144.7	2.0334666728605
12	59399	144.8	2.2552301893156
12	59436	144.9	1.5522203476736
12	59473	145	1.9569724679718
12	59510	145.1	1.3625981421388
12	59547	145.2	2.1791633549122
12	59584	145.3	1.6197172507415
12	59621	145.4	1.6823879023508
12	59654	145.5	0.973
12	59683	145.6	1.8691148778542
12	59712	145.7	1.3426329896572
12	59741	145.8	2.5170189448368
12	59770	145.9	1.2353546465904
12	59799	146	2.4762483029237
12	59828	146.1	0.973
12	59857	146.2	1.2827923133354
12	59886	146.3	1.5673380167238
12	59915	146.4	2.9560375802994
12	59944	146.5	1.4154186716378
12	59973	146.6	1.7592213440264
12	60002	146.7	1.9463011945031
12	60031	146.8	1.7706939780606
12	60060	146.9	0.973
12	60089	147	2.2858323978059
12	60118	147.1	1.4281462189227
12	60147	147.2	1.2647630609713
12	60176	147.3	2.1585553814369
12	60205	147.4	1.7540360922782
12	60234	147.5	1.3162694131119
12	60263	147.6	1.9871987052984
12	60292	147.7	1.3146623071271
12	60321	147.8	1.982036780905
12	60350	147.9	1.5480441468555
12	60379	148	2.0755087803599
12	60408	148.1	1.8061649272176
12	60437	148.2	1.9174540184664
12	60466	148.3	0.973
12	60495	148.4	1.8869751228596
12	60524	148.5	1.5520016274211
12	60553	148.6	2.6741772583342
12	60582	148.7	0.973
12	60611	148.8	1.7165080886951
12	60640	148.9	2.5464364514906
12	60669	149	1.7336376363796
12	60698	149.1	1.3719916379349
12	60727	149.2	2.1855832052527
12	60756	149.3	1.3974726046097
12	60785	149.4	2.0473388180363
12	60814	149.5	0.973
12	60843	149.6	2.2940226296851
12	60872	149.7	0.973
12	60901	149.8	2.1232672816638
12	60930	149.9	1.9243169450187
12	60959	150	0.973
12	60988	150.1	2.7653903475936
12	61017	150.2	0.973
12	61046	150.3	1.6835746335042
12	61075	150.4	2.0096945912236
12	61104	150.5	2.1969064625616
12	61133	150.6	0.973
12	61162	150.7	1.7564584162435
12	61191	150.8	1.2897212519059
12	61220	150.9	2.4175948614554
12	61249	151	1.5517199820059
12	61278	151.1	0.973
12	61307	151.2	2.2220666605892
12	61336	151.3	2.3469662864473
12	61365	151.4	1.4356209120259
12	61394	151.5	1.9408243416946
12	61423	151.6	0.973
12	61452	151.7	1.3052510779503
12	61481	151.8	2.0852186931106
12	61510	151.9	1.9243835577067
12	61539	152	1.9184080880462
12	61568	152.1	1.5207136788991
12	61597	152.2	1.5590927802454
12	61626	152.3	2.0194470729083
12	61655	152.4	0.973
12	61684	152.5	1.8197095754991
12	61713	152.6	2.1185728683525
12	61742	152.7	1.3299348376459
12	61771	152.8	2.6625817788463
12	61800	152.9	0.973
12	61829	153	2.4184831447233
12	61858	153.1	1.4558516239884
12	61887	153.2	1.9710139190714
12	61916	153.3	1.5799279577576
12	61945	153.4	2.0390377435298
12	61974	153.5	1.3625300523808
12	62003	153.6	0.973
12	62032	153.7	2.9402919271143
12	62061	153.8	0.973
12	62090	153.9	2.1803051731325
12	62119	154	1.7333112536231
12	62148	154.1	1.3250679828142
12	62177	154.2	1.4174853019389
12	62206	154.3	2.6624118253747
12	62235	154.4	0.973
12	62264	154.5	1.9307095976642
12	62293	154.6	2.0845130309076
12	62322	154.7	0.973
12	62351	154.8	1.8684730914559
12	62380	154.9	2.2872862702427
12	62409	155	2.0698190377032
12	62438	155.1	1.3164164720843
12	62467	155.2	1.2779588999252
12	62496	155.3	2.4393215654227
12	62525	155.4	0.973
12	62554	155.5	2.0907130775177
12	62583	155.6	0.973
12	62612	155.7	1.6791516765844
12	62641	155.8	2.6128693493493
12	62670	155.9	1.3474016439348
12	62699	156	2.0625640151573
12	62728	156.1	1.9204349434723
12	62757	156.2	0.973
12	62786	156.3	2.2186950943111
12	62815	156.4	1.7221502416256
12	62844	156.5	1.4518791155351
12	62873	156.6	0.973
12	62902	156.7	2.3990375344823
12	62931	156.8	1.703646989695
12	62960	156.9	1.2054124187541
12	62989	157	2.675511844997
12	63018	157.1	1.4209985716062
12	63047	157.2	2.0780425967068
12	63076	157.3	0.973
12	63105	157.4	1.8270414983522
12	63134	157.5	1.3659771154951
12	63163	157.6	2.3616416676665
12	63192	157.7	1.3463776481635
12	63221	157.8	1.1928152402971
12	63250	157.9	1.8198225131869
12	63279	158	1.8957988226884
12	63306	158.1	1.9231675044861
12	63333	158.2	0.973
12	63360	158.3	2.281337493246
12	63387	158.4	1.561458976297
12	63414	158.5	1.835802392232
12	63441	158.6	2.2805784507697
12	63468	158.7	0.973
12	63495	158.8	2.4625400440955
12	63522	158.9	0.973
12	63549	159	2.7348571754458
12	63576	159.1	0.973
12	63603	159.2	2.1528098733896
12	63630	159.3	1.3501374163891
12	63657	159.4	2.2239216525093
12	63684	159.5	2.010928395691
12	63711	159.6	0.973
12	63738	159.7	1.5056233239913
12	63765	159.8	1.6585880044316
12	63792	159.9	2.1933298172266
12	63819	160	1.6037983441637
12	63846	160.1	1.4879225095825
12	63873	160.2	1.8853563834748
12	63900	160.3	2.4531563243688
12	63927	160.4	0.973
12	63954	160.5	2.1460159333435
12	63981	160.6	1.3135580694483
12	64008	160.7	1.5446966514769
12	64035	160.8	2.1339501609343
12	64062	160.9	1.3962989842907
12	64089	161	2.1400383410052
12	64116	161.1	0.973
12	64141	161.2	2.0486293105566
12	64166	161.3	1.6704557906898
12	64191	161.4	2.1180120188654
12	64216	161.5	2.0041922041392
12	64241	161.6	0.973
12	64266	161.7	1.9613705217301
12	64291	161.8	1.2194871734788
12	64316	161.9	1.7650164890032
12	64341	162	2.0456177523599
12	64366	162.1	2.3668658794783
12	64391	162.2	0.973
12	64416	162.3	1.735493115106
12	64441	162.4	1.6227297459271
12	64466	162.5	2.1431125905476
12	64491	162.6	1.4249777260268
12	64516	162.7	2.0293734583068
12	64541	162.8	0.973
12	64566	162.9	2.315480779207
12	64591	163	1.598018400455
12	64616	163.1	1.5893643766277
12	64641	163.2	1.9878440393263
12	64666	163.3	0.973
12	64691	163.4	1.9714409972829
12	64716	163.5	2.1079996086993
12	64741	163.6	0.973
12	64766	163.7	2.9107791154113
12	64791	163.8	0.973
12	64816	163.9	2.145655952862
12	64841	164	2.0363454678477
12	64866	164.1	0.973
12	64891	164.2	1.4905020799549
12	64916	164.3	1.949564270197
12	64941	164.4	1.4126031864379
12	64966	164.5	2.4752627981555
12	64991	164.6	0.973
12	65016	164.7	2.4369123710744
12	65037	164.8	1.4704127674764
12	65058	164.9	1.5665179540268
12	65079	165	1.7919101623428
12	65100	165.1	2.1811106288483
12	65121	165.2	1.4751050222037
12	65142	165.3	1.9483286005705
12	65163	165.4	0.973
12	65184	165.5	1.5419392223113
12	65205	165.6	2.8869937383123
12	65226	165.7	0.973
12	65247	165.8	2.2070156905924
12	65268	165.9	1.348458334043
12	65289	166	2.1866059525927
12	65310	166.1	1.2253505545003
12	65331	166.2	2.0754664838653
12	65352	166.3	1.818735502794
12	65373	166.4	0.973
12	65394	166.5	1.6810395662687
12	65415	166.6	2.1360321515848
12	65436	166.7	2.2270386142232
12	65457	166.8	0.973
12	65478	166.9	1.9587415843901
12	65499	167	1.7197029804169
12	65520	167.1	2.4043742351831
12	65541	167.2	0.973
12	65562	167.3	2.4682361816489
12	65583	167.4	1.2270868003981
12	65604	167.5	1.6208973677931
12	65625	167.6	1.6806434791255
12	65646	167.7	2.1666139425625
12	65667	167.8	1.2545759589435
12	65688	167.9	1.5396166926688
12	65709	168	2.1192381352343
12	65730	168.1	2.3516755360893
12	65751	168.2	1.6741860881477
12	65772	168.3	1.7530338883885
12	65793	168.4	1.6374900177421
12	65814	168.5	1.7815035908778
12	65835	168.6	0.973
12	65856	168.7	2.6580091742505
12	65877	168.8	1.4670366962
12	65898	168.9	0.973
12	65919	169	1.6006796315032
12	65940	169.1	2.1854694209679
12	65961	169.2	1.2526267390217
12	65982	169.3	2.9032531282432
12	66003	169.4	0.973
12	66024	169.5	2.527353465152
12	66045	169.6	0.973
12	66066	169.7	1.7055800709043
12	66087	169.8	1.6578683850306
12	66108	169.9	2.2284777641501
12	66129	170	0.973
12	66150	170.1	2.572597947492
12	66171	170.2	0.973
12	66192	170.3	2.1188135428719
12	66213	170.4	1.2582667034583
12	66234	170.5	2.9286756371831
12	66255	170.6	0.973
12	66276	170.7	1.922640048929
12	66297	170.8	1.813832854543
12	66318	170.9	2.0171389184114
12	66339	171	1.6367596066012
12	66360	171.1	1.8202519201826
12	66381	171.2	1.7607600437138
12	66402	171.3	0.973
12	66423	171.4	2.0966984280671
12	66444	171.5	2.2533215760924
12	66465	171.6	0.973
12	66486	171.7	2.0284571095258
12	66507	171.8	1.4611567223774
12	66528	171.9	2.004144498719
12	66549	172	1.8676776816987
12	66570	172.1	0.973
12	66591	172.2	2.9353005867053
12	66612	172.3	0.973
12	66633	172.4	1.722203672137
12	66654	172.5	2.4038037431506
12	66675	172.6	1.9456457229524
12	66696	172.7	1.2104254367242
12	66717	172.8	2.2805661617397
12	66738	172.9	0.973
12	66759	173	2.4165891333051
12	66780	173.1	1.6757269450073
12	66801	173.2	0.973
12	66822	173.3	1.7362850091585
12	66843	173.4	2.1851922354342
12	66864	173.5	1.3074521444853
12	66885	173.6	2.3666534129285
12	66906	173.7	0.973
12	66927	173.8	2.4341257598758
12	66948	173.9	1.8977676258354
12	66969	174	2.0436419905751
12	66990	174.1	0.973
12	67011	174.2	2.3841878044639
12	67032	174.3	1.3805289940909
12	67053	174.4	1.8392282669478
12	67074	174.5	1.6168615279142
12	67095	174.6	2.5732776758358
12	67116	174.7	0.973
12	67137	174.8	1.7112543960853
12	67158	174.9	2.1943150991472
12	67179	175	1.2008786931443
12	67200	175.1	2.5853132931154
12	67221	175.2	1.3158686776838
12	67242	175.3	1.9816495865763
12	67263	175.4	1.4288829442855
12	67284	175.5	2.13591473987
12	67305	175.6	0.973
12	67326	175.7	2.6712665215162
12	67347	175.8	1.7585991952551
12	67368	175.9	1.7137545743617
12	67389	176	1.5950946726727
12	67410	176.1	1.4126330474351
12	67431	176.2	0.973
12	67452	176.3	2.7910831296821
12	67473	176.4	0.973
12	67494	176.5	1.8727454866607
12	67515	176.6	1.9423313720189
12	67536	176.7	1.9186627667571
12	67557	176.8	1.6942860607856
12	67578	176.9	1.9469022960773
12	67599	177	0.973
12	67620	177.1	1.7957129671542
12	67641	177.2	1.986943127918
12	67662	177.3	1.3736649094501
12	67683	177.4	2.4931144976206
12	67704	177.5	0.973
12	67725	177.6	1.8349154495599
12	67746	177.7	1.9587328341783
12	67767	177.8	2.0758578407588
12	67788	177.9	1.6741699950203
12	67809	178	1.6387685730713
12	67830	178.1	0.973
12	67851	178.2	1.8103969888375
12	67872	178.3	2.2084361797483
12	67893	178.4	1.6246222245667
12	67914	178.5	1.3157090570857
12	67935	178.6	1.626697160526
12	67956	178.7	2.1120790316643
12	67977	178.8	1.5826714826999
12	67998	178.9	2.2234067705366
12	68019	179	0.973
12	68040	179.1	1.822593677444
12	68061	179.2	2.080552254932
12	68082	179.3	1.322420387673
12	68103	179.4	1.742491098583
12	68124	179.5	1.7725359327904
12	68145	179.6	2.5798950535602
12	68166	179.7	1.2098412435732
12	68187	179.8	1.2603583277018
12	68208	179.9	1.8842448992995
12	68229	180	2.1639040135234
12	68250	180.1	0.973
12	68271	180.2	2.6413464218496
12	68292	180.3	1.6175034807272
12	68313	180.4	0.973
12	68334	180.5	1.9036449643109
12	68355	180.6	1.6044878358591
12	68376	180.7	2.8478438379169
12	68397	180.8	1.2569741833418
12	68418	180.9	1.9048307248929
12	68437	181	1.6459648859182
12	68456	181.1	0.973
12	68475	181.2	1.738150991997
12	68494	181.3	2.0527691637354
12	68513	181.4	1.8439377562942
12	68532	181.5	1.4443144805594
12	68551	181.6	1.7857028872429
12	68570	181.7	1.7000020938441
12	68589	181.8	1.639167128346
12	68608	181.9	1.9995168587668
12	68627	182	1.24634982718
12	68646	182.1	2.3802650776472
12	68665	182.2	1.2106116117603
12	68684	182.3	1.3360046785814
12	68703	182.4	2.9340704441399
12	68722	182.5	0.973
12	68741	182.6	2.4999539192571
12	68760	182.7	0.973
12	68779	182.8	1.6161287054237
12	68798	182.9	2.2077579889311
12	68817	183	0.973
12	68836	183.1	2.0887781429322
12	68855	183.2	2.2162316065466
12	68874	183.3	0.973
12	68893	183.4	2.5635389411951
12	68912	183.5	0.973
12	68931	183.6	2.305178405078
12	68950	183.7	0.973
12	68969	183.8	2.136970966353
12	68988	183.9	1.2208011239286
12	69007	184	1.6369677011822
12	69026	184.1	1.9632659126543
12	69045	184.2	1.5526979037843
12	69064	184.3	1.5239329753417
12	69083	184.4	1.7275704862044
12	69102	184.5	1.9579724946545
12	69121	184.6	1.9345214379202
12	69140	184.7	1.7763467035033
12	69159	184.8	0.973
12	69178	184.9	1.9373567139429
12	69197	185	2.3775499393211
12	69216	185.1	1.240728000062
12	69235	185.2	1.2876874254745
12	69254	185.3	2.6813871425378
12	69273	185.4	0.973
12	69292	185.5	1.7521385878104
12	69311	185.6	2.1264991690977
12	69330	185.7	2.3074458421539
12	69349	185.8	1.5839022487199
12	69368	185.9	0.973
12	69387	186	2.834554210561
12	69406	186.1	1.30729325858
12	69425	186.2	1.4100077377481
12	69444	186.3	2.2562350044198
12	69463	186.4	0.973
12	69482	186.5	2.7660338893289
12	69501	186.6	1.2371022319658
12	69520	186.7	1.6222100381034
12	69539	186.8	2.2116906223347
12	69558	186.9	1.4245482679947
12	69577	187	1.6903493970833
12	69596	187.1	1.3726936186164
12	69615	187.2	1.8882063724525
12	69634	187.3	1.9321060193109
12	69653	187.4	1.469355643603
12	69672	187.5	1.9913053064744
12	69691	187.6	1.6300992655036
12	69710	187.7	1.5532992107074
12	69729	187.8	1.9343911034701
12	69748	187.9	1.949867664181
12	69767	188	0.973
12	69786	188.1	2.1852496313926
12	69805	188.2	0.973
12	69824	188.3	1.9420351085982
12	69843	188.4	1.6678156165931
12	69862	188.5	1.7879742551879
12	69881	188.6	1.5708894751501
12	69900	188.7	2.1386095681479
12	69919	188.8	1.5817130285165
12	69938	188.9	1.7481034036244
12	69957	189	1.4027988476073
12	69976	189.1	2.4002178301143
12	69995	189.2	1.9629360630386
12	70014	189.3	1.8705908237748
12	70033	189.4	0.973
12	70052	189.5	1.9640935693192
12	70071	189.6	1.2146813155842
12	70090	189.7	2.1294690609098
12	70109	189.8	1.9776444427072
12	70128	189.9	1.5516783003117
12	70147	190	1.65789861738
12	70166	190.1	1.8849388966666
12	70185	190.2	0.973
12	70204	190.3	1.8003372517947
12	70223	190.4	2.258562323126
12	70242	190.5	1.4612775338554
12	70261	190.6	2.2849684437049
12	70280	190.7	1.3653526206832
12	70299	190.8	1.6133239244068
12	70318	190.9	1.8439525341339
12	70337	191	1.6794349999708
12	70356	191.1	1.4065033814431
12	70375	191.2	1.6101243784346
12	70394	191.3	2.1359699707296
12	70413	191.4	1.8457601001842
12	70432	191.5	1.3807562598804
12	70451	191.6	2.3954889421581
12	70470	191.7	1.5807974464469
12	70489	191.8	1.738474149682
12	70508	191.9	1.3236355879996
12	70527	192	2.5036792737665
12	70546	192.1	0.973
12	70565	192.2	2.2851567981296
12	70584	192.3	2.2013303253187
12	70603	192.4	1.7318619883772
12	70622	192.5	1.6424123459123
12	70641	192.6	1.8139055774243
12	70660	192.7	0.973
12	70679	192.8	2.1715984559614
12	70698	192.9	1.9698234260108
12	70717	193	1.8165440806604
12	70736	193.1	1.3766884761408
12	70755	193.2	1.5542328832881
12	70774	193.3	1.4199715183814
12	70793	193.4	1.8761743991666
12	70812	193.5	2.2257370333804
12	70831	193.6	1.7459820267003
12	70850	193.7	1.6238917811231
12	70869	193.8	2.2436668833249
12	70888	193.9	1.4640913026322
12	70907	194	1.3546058226924
12	70926	194.1	1.3713917493983
12	70945	194.2	2.4853681677176
12	70964	194.3	1.2659897198555
12	70983	194.4	1.4022264934551
12	71002	194.5	2.3185656422497
12	71021	194.6	1.9116745894009
12	71040	194.7	1.2578126196138
12	71059	194.8	1.5017472189196
12	71078	194.9	2.3106102178979
12	71097	195	0.973
12	71116	195.1	2.2405113133578
12	71135	195.2	1.7013874528854
12	71154	195.3	1.2940340965509
12	71173	195.4	2.0186948834638
12	71192	195.5	1.2053979660499
12	71211	195.6	2.3333527122444
12	71230	195.7	2.1210432796854
12	71249	195.8	0.973
12	71268	195.9	1.621034589338
12	71287	196	1.7450252554614
12	71306	196.1	2.5291572660856
12	71325	196.2	0.973
12	71344	196.3	1.9305492957192
12	71363	196.4	2.2157639714021
12	71382	196.5	0.973
12	71401	196.6	1.9341862021414
12	71420	196.7	1.9409144804657
12	71439	196.8	1.3614117717527
12	71458	196.9	1.4842260237912
12	71477	197	1.6310105147571
12	71496	197.1	2.0376934662943
12	71515	197.2	1.3499398478936
12	71534	197.3	1.8681157991381
12	71553	197.4	2.5667032183496
12	71572	197.5	1.7762313295625
12	71591	197.6	1.1921418379371
12	71610	197.7	1.4196532898099
12	71629	197.8	1.7197554040502
12	71648	197.9	2.4899278977177
12	71667	198	0.973
12	71686	198.1	1.9898010034508
12	71705	198.2	1.4352087440132
12	71724	198.3	1.7185722070698
12	71743	198.4	1.5860745512997
12	71762	198.5	2.7433167355926
12	71781	198.6	1.8589156577144
12	71800	198.7	0.973
12	71819	198.8	1.5009071603982
12	71838	198.9	2.5690512932236
12	71857	199	1.2323443160326
12	71876	199.1	2.1658976413494
12	71895	199.2	0.973
12	71914	199.3	2.1095496941397
12	71933	199.4	1.1987536819771
12	71952	199.5	2.7480888959916
12	71971	199.6	0.973
12	71990	199.7	2.259148780806
12	72009	199.8	1.4704632666273
12	72028	199.9	1.3553035308135
12	72047	200	2.1774283094212
11	40	0.3	0.36010505410376
11	59	0.4	-0.15110909333453
11	78	0.5	0.0777883375995
11	97	0.6	0.02720864850561
11	116	0.7	-0.046960807871077
11	135	0.8	-0.079650256899182
11	154	0.9	-0.025603371788741
11	173	1	-0.071024631615728
11	192	1.1	0.059811106417325
11	211	1.2	-0.1330124908127
11	230	1.3	0.24038362584543
11	249	1.4	-0.33683259401004
11	268	1.5	0.42536492052022
11	287	1.6	-0.32153995579575
11	306	1.7	0.12658135162201
11	325	1.8	-0.070692511508241
11	344	1.9	0.20915144518948
11	363	2	-0.028857273166061
11	382	2.1	-0.30132154154126
11	401	2.2	-0.083758502732962
11	420	2.3	0.32741869357414
11	439	2.4	-0.18944921612274
11	458	2.5	-0.092033264576461
11	477	2.6	-0.0091087588807426
11	496	2.7	0.40478122839703
11	515	2.8	0.022994711413045
11	534	2.9	-0.065387819195166
11	553	3	-0.35415604081935
11	572	3.1	0.38989783392752
11	591	3.2	-0.16138039215001
11	610	3.3	-0.26839095563629
11	629	3.4	0.21236212132498
11	648	3.5	-0.079355911700976
11	667	3.6	0.18818073940929
11	686	3.7	-0.18549264536706
11	705	3.8	-0.07406237442046
11	724	3.9	0.40816869668197
11	743	4	-0.36592801613732
11	762	4.1	-0.1193583875429
11	781	4.2	0.12034771719483
11	800	4.3	0.23386083042714
11	819	4.4	-0.25441766995936
11	838	4.5	0.34302666003349
11	857	4.6	-0.1723337562289
11	876	4.7	-0.23035098996479
11	895	4.8	0.30749068059958
11	914	4.9	0.0029194001108479
11	933	5	0.07887338695582
11	952	5.1	0.055330805364058
11	971	5.2	-0.32973428606056
11	990	5.3	0.23360370972659
11	1009	5.4	-0.026959273265668
11	1028	5.5	-0.11301325133536
11	1047	5.6	0.21910530794411
11	1066	5.7	-0.2603775311727
11	1085	5.8	0.21369451726788
11	1104	5.9	-0.22128848254216
11	1123	6	-0.055226412136111
11	1142	6.1	0.29871196555906
11	1161	6.2	-0.15586077782791
11	1180	6.3	-0.1401720859576
11	1199	6.4	0.14011044590733
11	1218	6.5	0.18211290368345
11	1237	6.6	-0.24297147488687
11	1256	6.7	-0.063949120114568
11	1275	6.8	0.074452770641074
11	1294	6.9	-0.21485282550566
11	1313	7	0.17901985987557
11	1332	7.1	-0.15842343703845
11	1351	7.2	0.38296360510868
11	1370	7.3	-0.00090082036331651
11	1389	7.4	-0.33405747357756
11	1408	7.5	0.20485722832381
11	1427	7.6	0.11616132000928
11	1446	7.7	-0.3810771923745
11	1465	7.8	0.28987135970965
11	1484	7.9	-0.20152312167921
11	1503	8	0.012407057569366
11	1522	8.1	-0.078654051991176
11	1541	8.2	0.12981694261544
11	1560	8.3	-0.063635115511715
11	1579	8.4	0.20102204929572
11	1598	8.5	0.03948522242716
11	1617	8.6	-0.31297916080803
11	1636	8.7	0.23389751254582
11	1655	8.8	-0.26837442943361
11	1674	8.9	0.15069927542935
11	1693	9	0.020872889203023
11	1712	9.1	0.25347487500403
11	1731	9.2	-0.41737164498771
11	1750	9.3	0.24978856334927
11	1769	9.4	-0.064238737104461
11	1788	9.5	0.085126401623707
11	1807	9.6	0.085554914083339
11	1826	9.7	-0.3331762702437
11	1845	9.8	0.16485001414548
11	1864	9.9	0.28540458169299
11	1883	10	-0.30713729583658
11	1902	10.1	0.14525000716095
11	1921	10.2	-0.10020660189912
11	1940	10.3	-0.17944199463818
11	1959	10.4	0.26433616736904
11	1978	10.5	-0.27563269250095
11	1997	10.6	0.14258751424494
11	2016	10.7	0.30376943806187
11	2035	10.8	-0.45680799672846
11	2054	10.9	0.11927015753463
11	2073	11	-0.15321296616458
11	2092	11.1	0.41249117045664
11	2111	11.2	0.017602380365123
11	2130	11.3	-0.39772985747549
11	2149	11.4	0.11788865108974
11	2168	11.5	0.31540899456013
11	2187	11.6	-0.34473143913784
11	2206	11.7	0.00079342932441051
11	2225	11.8	-0.084574173786685
11	2244	11.9	0.10574989195447
11	2263	12	0.29362689726987
11	2282	12.1	0.052195415133607
11	2301	12.2	-0.0031654275953841
11	2320	12.3	-0.0010477509349549
11	2339	12.4	-0.10895229037851
11	2358	12.5	-0.30690844031051
11	2377	12.6	0.16059844219127
11	2396	12.7	-0.0069954536156835
11	2415	12.8	-0.14460445998701
11	2434	12.9	0.35892878810408
11	2453	13	-0.077505181776356
11	2472	13.1	-0.15328779362607
11	2491	13.2	-0.19191823888105
11	2510	13.3	0.20428276294842
11	2529	13.4	0.27119146485347
11	2548	13.5	-0.39099269150755
11	2567	13.6	0.28382919984869
11	2586	13.7	-0.28706545894966
11	2605	13.8	0.20962227287237
11	2624	13.9	-0.23784060357139
11	2643	14	0.058210106566552
11	2662	14.1	0.095440701115876
11	2681	14.2	0.20989250508137
11	2700	14.3	0.038268766133118
11	2719	14.4	-0.030712878098704
11	2738	14.5	0.038395788171321
11	2757	14.6	-0.03147112426813
11	2776	14.7	-0.059107607696216
11	2795	14.8	-0.24363982281647
11	2814	14.9	0.076636002515436
11	2833	15	0.27358049864416
11	2852	15.1	-0.029709150549024
11	2871	15.2	-0.44765102327801
11	2890	15.3	0.19958793348632
11	2909	15.4	0.18240361078643
11	2928	15.5	-0.024516252800826
11	2947	15.6	-0.24575005529915
11	2966	15.7	0.27419818856288
11	2985	15.8	-0.19296472473069
11	3004	15.9	-0.19433052989189
11	3023	16	0.061595594976112
11	3042	16.1	0.30349051801021
11	3061	16.2	-0.12696097488515
11	3080	16.3	-0.063092999393124
11	3099	16.4	-0.10451259266119
11	3118	16.5	0.33609475137201
11	3137	16.6	0.069107598043043
11	3156	16.7	-0.025722973165099
11	3175	16.8	-0.20816148084123
11	3194	16.9	-0.059992176480588
11	3213	17	0.018739010905833
11	3232	17.1	0.12574451614638
11	3251	17.2	-0.3356268752832
11	3270	17.3	0.20443546609021
11	3289	17.4	0.099802023964006
11	3308	17.5	-0.085403521312397
11	3327	17.6	-0.097193106077604
11	3346	17.7	0.0380507686641
11	3365	17.8	0.20215666748118
11	3384	17.9	0.099292362807315
11	3403	18	-0.15187468437944
11	3422	18.1	-0.12981665355619
11	3441	18.2	0.20977174816654
11	3460	18.3	-0.27129077306018
11	3479	18.4	0.34310953796375
11	3498	18.5	-0.096889309817918
11	3517	18.6	-0.27221973170526
11	3536	18.7	0.30566014233045
11	3555	18.8	-0.22301330044865
11	3574	18.9	0.057395287556563
11	3593	19	-0.20006883062887
11	3612	19.1	0.3307555966312
11	3631	19.2	0.09866784291809
11	3650	19.3	-0.33455243846403
11	3669	19.4	-0.018556031864136
11	3688	19.5	-0.067818914540112
11	3707	19.6	-0.012078104424287
11	3726	19.7	0.4590102484217
11	3745	19.8	-0.11020525789355
11	3764	19.9	-0.19120813417247
11	3783	20	-0.16611898329575
11	3802	20.1	-0.00057989882771281
11	3821	20.2	0.19676146458369
11	3840	20.3	-0.17947658291087
11	3859	20.4	0.13702007441315
11	3878	20.5	0.12577924435028
11	3897	20.6	-0.047991476021707
11	3916	20.7	-0.059159909724258
11	3935	20.8	0.027381285093711
11	3954	20.9	-0.18831675383261
11	3973	21	0.0037239956436608
11	3992	21.1	0.2619289108552
11	4011	21.2	-0.28419346013106
11	4030	21.3	0.3946534342831
11	4049	21.4	0.023813072592027
11	4068	21.5	-0.0043748174794089
11	4087	21.6	-0.18529150716494
11	4106	21.7	0.24206868081819
11	4125	21.8	-0.46322270133533
11	4144	21.9	0.060427370830443
11	4163	22	0.40604824468028
11	4182	22.1	-0.080588640295911
11	4201	22.2	-0.077933656168163
11	4220	22.3	0.10053336434066
11	4239	22.4	-0.33924692333676
11	4258	22.5	0.23237701796461
11	4279	22.6	-0.29768541594967
11	4300	22.7	0.17904665367677
11	4321	22.8	-0.14840890513732
11	4342	22.9	0.017048772191615
11	4363	23	-0.0303289333824
11	4384	23.1	0.22275602433364
11	4405	23.2	-0.043233276461248
11	4426	23.3	-0.12612838600761
11	4447	23.4	0.2564423669828
11	4468	23.5	-0.10226733400486
11	4489	23.6	-0.054428393021233
11	4510	23.7	0.29178851726465
11	4531	23.8	-0.28897406661416
11	4552	23.9	0.079902526689679
11	4573	24	-0.18684208556078
11	4594	24.1	0.24605785927269
11	4615	24.2	-0.28882194915786
11	4636	24.3	0.15751574386377
11	4657	24.4	0.1969235057477
11	4678	24.5	-0.30195951438509
11	4699	24.6	0.087949026608829
11	4720	24.7	0.27906095318031
11	4741	24.8	-0.18314220302273
11	4762	24.9	-0.12943757837638
11	4783	25	-0.11976647039409
11	4804	25.1	0.45909987750928
11	4825	25.2	-0.48817856039385
11	4846	25.3	0.30008941353298
11	4867	25.4	-0.29860161291435
11	4888	25.5	0.18453372095244
11	4909	25.6	-0.11206485447474
11	4930	25.7	0.12706715089735
11	4951	25.8	-0.026682347175662
11	4972	25.9	0.17124996252823
11	4993	26	-0.15062853018753
11	5014	26.1	-0.081594213261269
11	5035	26.2	-0.05414603697135
11	5056	26.3	0.051615827600457
11	5077	26.4	0.028512466931723
11	5098	26.5	-0.083211092161939
11	5119	26.6	0.27089921629521
11	5140	26.7	-0.1740538951708
11	5161	26.8	0.10995742806699
11	5182	26.9	0.034385592094619
11	5203	27	-0.014354301150892
11	5224	27.1	0.0046658837236535
11	5245	27.2	0.042047817260027
11	5266	27.3	-0.15226770879234
11	5287	27.4	0.095836045918976
11	5308	27.5	-0.27177740226033
11	5329	27.6	0.1480005964404
11	5350	27.7	0.2396155000897
11	5371	27.8	-0.11406556179281
11	5392	27.9	0.041677386150702
11	5413	28	-0.22714628372341
11	5434	28.1	-0.04117973998655
11	5455	28.2	-0.011921831872304
11	5476	28.3	0.12056106794624
11	5497	28.4	0.1962557748193
11	5518	28.5	0.0089207809651271
11	5539	28.6	-0.30126562074292
11	5560	28.7	0.16359164984896
11	5581	28.8	-0.13722321949899
11	5602	28.9	0.11483628163115
11	5623	29	-0.080327005358427
11	5644	29.1	0.10706545133145
11	5665	29.2	-0.12593614286743
11	5686	29.3	0.10101295926143
11	5707	29.4	0.051574060111292
11	5728	29.5	0.061510483850729
11	5749	29.6	0.13723978190683
11	5770	29.7	-0.15485741617157
11	5791	29.8	0.14914904721081
11	5812	29.9	-0.45159551722463
11	5833	30	0.40060213021933
11	5854	30.1	-0.31512291845866
11	5875	30.2	-0.031551479129117
11	5896	30.3	0.093274201732125
11	5917	30.4	0.059459418291237
11	5938	30.5	0.20426148781553
11	5959	30.6	-0.15295429318213
11	5980	30.7	0.06085398606956
11	6001	30.8	0.060066048172303
11	6022	30.9	-0.18373595504089
11	6043	31	0.14012101292609
11	6064	31.1	-0.30201785697136
11	6085	31.2	0.0033350128214771
11	6106	31.3	0.32625861419366
11	6127	31.4	0.073113497463062
11	6148	31.5	-0.041035715257749
11	6169	31.6	-0.15331071859691
11	6190	31.7	-0.11450075055473
11	6211	31.8	0.26019561628345
11	6232	31.9	-0.019919560058046
11	6253	32	-0.30181915953289
11	6274	32.1	0.21791157778353
11	6295	32.2	-0.10041817312596
11	6316	32.3	0.19150946557057
11	6337	32.4	0.065849439473826
11	6358	32.5	-0.20694487635046
11	6379	32.6	0.019358013058071
11	6400	32.7	0.16223466803785
11	6421	32.8	-0.23456728912423
11	6442	32.9	0.038898053811867
11	6463	33	-0.055063613690436
11	6484	33.1	0.25479590415488
11	6505	33.2	-0.30349114036653
11	6526	33.3	0.26473934017123
11	6547	33.4	-0.14865134039429
11	6568	33.5	-0.13297210494056
11	6589	33.6	0.38148280186578
11	6610	33.7	-0.15101601800415
11	6631	33.8	-0.2742799584521
11	6652	33.9	0.014106384944181
11	6673	34	0.15313450829126
11	6694	34.1	-0.16408383916133
11	6715	34.2	-0.041598859708749
11	6736	34.3	0.061699498561207
11	6757	34.4	-0.0138542256318
11	6778	34.5	0.37768602091818
11	6799	34.6	-0.27628046507015
11	6820	34.7	-0.026106327772144
11	6841	34.8	0.046638085972521
11	6862	34.9	-0.094687222968783
11	6883	35	0.38252202037256
11	6904	35.1	-0.36783375369851
11	6925	35.2	0.019255064777095
11	6946	35.3	0.23601510352455
11	6967	35.4	0.0013145471457499
11	6988	35.5	-0.18761700869073
11	7009	35.6	0.14350292680319
11	7030	35.7	-0.22564560757019
11	7051	35.8	0.17522122361697
11	7072	35.9	-0.16830159327947
11	7093	36	-0.10386118222959
11	7114	36.1	0.34511172177735
11	7135	36.2	0.078621252323501
11	7156	36.3	-0.3791513015749
11	7177	36.4	0.17987452948001
11	7198	36.5	-0.21659049391745
11	7219	36.6	0.16906798107083
11	7244	36.7	-0.17865430808161
11	7269	36.8	0.2239211065462
11	7294	36.9	0.0098224377725309
11	7319	37	0.19549901364371
11	7344	37.1	-0.11013863387053
11	7369	37.2	0.16474330157507
11	7394	37.3	-0.06708830723074
11	7419	37.4	-0.29262100276537
11	7444	37.5	0.35761874739546
11	7469	37.6	-0.1680717022391
11	7494	37.7	-0.24790157785173
11	7519	37.8	0.084834266221137
11	7544	37.9	0.00086778961122747
11	7569	38	0.25115267245564
11	7594	38.1	-0.12663374096155
11	7619	38.2	-0.069836565759029
11	7644	38.3	-0.20408714935183
11	7669	38.4	0.39292274124454
11	7694	38.5	-0.021913337754089
11	7719	38.6	-0.0072200887370855
11	7744	38.7	-0.24399966630153
11	7769	38.8	0.14659853966441
11	7794	38.9	0.20002294913866
11	7819	39	-0.22579340299126
11	7844	39.1	0.14827803883236
11	7869	39.2	-0.29332204081584
11	7894	39.3	0.15479847148526
11	7919	39.4	0.14266648620833
11	7944	39.5	0.057529034675099
11	7969	39.6	-0.038536690524786
11	7994	39.7	-0.16865344613324
11	8019	39.8	-0.14229223737493
11	8044	39.9	-0.058010429842401
11	8069	40	0.34203888894989
11	8094	40.1	-0.25930343952496
11	8119	40.2	0.24016403744463
11	8144	40.3	-0.15320292604155
11	8169	40.4	0.21588955563493
11	8194	40.5	-0.11982901988086
11	8219	40.6	0.1446161060594
11	8244	40.7	-0.21143537957686
11	8269	40.8	-0.094340315787136
11	8294	40.9	0.11871447251179
11	8319	41	0.047851597541015
11	8344	41.1	-0.22736639657523
11	8369	41.2	0.38509799330495
11	8394	41.3	-0.17100813507568
11	8419	41.4	-0.035347694647498
11	8444	41.5	-0.13860446971375
11	8469	41.6	-0.086952415294945
11	8494	41.7	0.31611574126872
11	8519	41.8	-0.27018146158662
11	8544	41.9	0.080726264743145
11	8569	42	0.32251777104102
11	8594	42.1	-0.36203668883537
11	8619	42.2	0.065929523785613
11	8644	42.3	-0.038262249436229
11	8669	42.4	0.048029678990122
11	8696	42.5	0.0052194047020748
11	8723	42.6	0.10625175409951
11	8750	42.7	-0.29884121660142
11	8777	42.8	-0.014121454907592
11	8804	42.9	0.29990369314328
11	8831	43	-0.22452228912153
11	8858	43.1	-0.072981177945621
11	8885	43.2	0.19839468807914
11	8912	43.3	-0.042789513594474
11	8939	43.4	0.2923377341358
11	8966	43.5	-0.45259701227769
11	8993	43.6	0.10597519041038
11	9020	43.7	-0.10743230383378
11	9047	43.8	0.17033752007411
11	9074	43.9	0.30813090782612
11	9101	44	-0.34083071013447
11	9128	44.1	0.015486629563384
11	9155	44.2	0.039651506114744
11	9182	44.3	0.25130090175663
11	9209	44.4	-0.087236753082838
11	9236	44.5	-0.24776491732336
11	9263	44.6	-0.05697583896108
11	9290	44.7	0.18978349864483
11	9317	44.8	-0.10255431348924
11	9344	44.9	0.31896453001536
11	9371	45	-0.26876267907211
11	9398	45.1	-0.11124981788452
11	9425	45.2	0.070899236830879
11	9452	45.3	0.070473020779893
11	9479	45.4	-0.15306514443363
11	9506	45.5	0.05793406476732
11	9533	45.6	0.24038609967102
11	9560	45.7	-0.36760990286712
11	9589	45.8	0.21301860618406
11	9618	45.9	-0.032663534162563
11	9647	46	0.074679682380516
11	9676	46.1	-0.1998375694966
11	9705	46.2	0.0074322412256223
11	9734	46.3	0.013360142707821
11	9763	46.4	0.10003306285943
11	9792	46.5	0.031072597950708
11	9821	46.6	0.15199793467763
11	9850	46.7	-0.35503560723738
11	9879	46.8	0.095996405463676
11	9908	46.9	0.14901248179376
11	9937	47	-0.1353395517217
11	9966	47.1	0.32401764625684
11	9995	47.2	-0.39836891065352
11	10024	47.3	0.43809063639491
11	10053	47.4	-0.091884110239331
11	10082	47.5	-0.35514083434828
11	10111	47.6	0.45396873704158
11	10140	47.7	-0.34296482952778
11	10169	47.8	-0.087070143898007
11	10198	47.9	0.43186586303635
11	10227	48	-0.24738201301078
11	10256	48.1	0.098030721885145
11	10285	48.2	-0.26674975617789
11	10314	48.3	0.15048638603185
11	10343	48.4	-0.065855663036931
11	10372	48.5	0.11868718685582
11	10401	48.6	-0.08772777067497
11	10430	48.7	0.16910609265324
11	10459	48.8	0.14037413883489
11	10488	48.9	-0.28370367945172
11	10517	49	0.13265586225316
11	10546	49.1	-0.1029116929276
11	10575	49.2	-0.19956912635825
11	10604	49.3	0.24496553163043
11	10633	49.4	0.089539376203902
11	10662	49.5	-0.061948864720751
11	10691	49.6	-0.2802836742485
11	10720	49.7	-0.0025036329170547
11	10749	49.8	0.046269213897165
11	10778	49.9	-0.03793828189373
11	10807	50	0.34615311142989
11	10836	50.1	0.070209040073674
11	10865	50.2	-0.069913761224605
11	10894	50.3	0.03807684825734
11	10923	50.4	-0.35265851265285
11	10952	50.5	0.37723270931746
11	10981	50.6	-0.42555667972191
11	11010	50.7	0.39315359282773
11	11039	50.8	-0.13629530905746
11	11068	50.9	0.13949402398429
11	11097	51	-0.35942768957465
11	11126	51.1	0.20041071157902
11	11155	51.2	0.039648473379206
11	11184	51.3	0.061841605231159
11	11213	51.4	0.11191447626334
11	11242	51.5	-0.043536692624908
11	11271	51.6	-0.31996189279017
11	11300	51.7	0.3002925249748
11	11329	51.8	-0.2026925876271
11	11358	51.9	-0.17234264523722
11	11387	52	0.41022997396066
11	11416	52.1	-0.1724902227288
11	11445	52.2	0.14832591137383
11	11474	52.3	-0.074109164648686
11	11503	52.4	-0.2986758791376
11	11532	52.5	0.1529773256043
11	11561	52.6	0.28159080375916
11	11590	52.7	-0.030575386597764
11	11619	52.8	0.014102690620348
11	11648	52.9	-0.19318071566522
11	11677	53	0.065942118759263
11	11706	53.1	-0.14231554744766
11	11735	53.2	-0.175365083036
11	11764	53.3	0.26970902830362
11	11793	53.4	0.10995027644094
11	11822	53.5	0.014931541285463
11	11851	53.6	-0.2293892998714
11	11880	53.7	0.28425670519937
11	11909	53.8	-0.13612957776058
11	11938	53.9	-0.32592950446997
11	11967	54	0.10440722724889
11	11996	54.1	0.28113247151486
11	12025	54.2	-0.18797488661949
11	12054	54.3	0.07274707139004
11	12083	54.4	-0.086883053416376
11	12112	54.5	0.146791367908
11	12141	54.6	0.10403583955485
11	12170	54.7	-0.10055744042619
11	12199	54.8	-0.3404616219923
11	12228	54.9	0.41408185369802
11	12257	55	-0.14857295504772
11	12286	55.1	-0.086298537906266
11	12315	55.2	0.29921459686012
11	12344	55.3	-0.10809315298683
11	12373	55.4	-0.30846919270699
11	12402	55.5	0.36529070232064
11	12431	55.6	0.06078014895321
11	12460	55.7	-0.3358214950422
11	12489	55.8	-0.090681914356523
11	12518	55.9	0.25778474844991
11	12547	56	-0.02064541564323
11	12576	56.1	-0.23305630590766
11	12605	56.2	-0.034672726062119
11	12634	56.3	0.24074913677758
11	12663	56.4	-0.26211620459797
11	12696	56.5	0.13852709403727
11	12733	56.6	-0.02783668064513
11	12770	56.7	0.08791806397495
11	12807	56.8	0.22158410120754
11	12844	56.9	-0.33654644037597
11	12881	57	0.35151521174702
11	12918	57.1	-0.11542134010233
11	12955	57.2	-0.11442657012958
11	12992	57.3	-0.029112072428674
11	13029	57.4	0.082243811688372
11	13066	57.5	-0.17737714678514
11	13103	57.6	0.28229701018427
11	13140	57.7	-0.087252252735208
11	13177	57.8	-0.19142279599327
11	13214	57.9	0.12874413724058
11	13251	58	0.15029824944213
11	13288	58.1	0.11837737797761
11	13325	58.2	-0.11807434621733
11	13362	58.3	-0.001474588993009
11	13399	58.4	-0.1829468475189
11	13436	58.5	0.17691492685117
11	13473	58.6	-0.13117119914387
11	13510	58.7	0.072010320378464
11	13547	58.8	0.17208278586622
11	13584	58.9	-0.40375839965417
11	13621	59	0.19682005210779
11	13658	59.1	-0.26325729861854
11	13695	59.2	0.4595168721862
11	13732	59.3	-0.052821092540398
11	13769	59.4	-0.0097524324664811
11	13806	59.5	-0.1793491448043
11	13843	59.6	0.13429685530719
11	13880	59.7	-0.11028469982557
11	13917	59.8	-0.12033736205193
11	13954	59.9	0.27459378517232
11	13991	60	-0.36797096172812
11	14028	60.1	0.13031718693673
11	14065	60.2	-0.015006196335889
11	14102	60.3	0.26099451619666
11	14139	60.4	-0.2588336277986
11	14178	60.5	0.041974613210183
11	14217	60.6	-0.026578392134979
11	14256	60.7	0.068633548682548
11	14295	60.8	0.22410476289224
11	14334	60.9	-0.20217629114631
11	14373	61	-0.005453340592787
11	14412	61.1	-0.06657733081374
11	14451	61.2	0.25858859461731
11	14490	61.3	0.036225877236582
11	14529	61.4	-0.019849569769583
11	14568	61.5	-0.1539572859183
11	14607	61.6	-0.19847560918423
11	14646	61.7	0.18285189545713
11	14685	61.8	-0.26391199266072
11	14724	61.9	0.2011386747472
11	14763	62	0.043133461382237
11	14802	62.1	0.058795547112833
11	14841	62.2	-0.0076229647966208
11	14880	62.3	0.1483006180497
11	14919	62.4	-0.20057178125718
11	14958	62.5	-0.2273117970908
11	14997	62.6	0.010901306173761
11	15036	62.7	0.034236374893233
11	15075	62.8	-0.073635935084901
11	15116	62.9	0.32683849788738
11	15157	63	-0.31085816491396
11	15198	63.1	0.44166956841947
11	15239	63.2	-0.15760242089165
11	15280	63.3	0.14205753814895
11	15321	63.4	-0.42470429395326
11	15362	63.5	0.2937013936462
11	15403	63.6	-0.22647838981356
11	15444	63.7	0.020928897196431
11	15485	63.8	0.14164595957846
11	15526	63.9	0.19175217545126
11	15567	64	-0.058819453115575
11	15608	64.1	0.061897890758686
11	15649	64.2	-0.40814731514546
11	15690	64.3	0.085746248601932
11	15731	64.4	0.13664206489921
11	15772	64.5	-0.064380705705851
11	15813	64.6	0.18749098409899
11	15854	64.7	-0.25952562456951
11	15895	64.8	-0.063413057359867
11	15936	64.9	0.13939490716439
11	15977	65	-0.01894377788993
11	16018	65.1	-0.1469155898085
11	16059	65.2	0.003478307160556
11	16100	65.3	0.1464682527585
11	16141	65.4	-0.091822494287044
11	16182	65.5	-0.0021558863809368
11	16223	65.6	-0.096211088472042
11	16264	65.7	0.14709779573604
[...]
15	55489	135	374.23601949557
15	55530	135.1	374.19276924115
15	55571	135.2	374.14937389464
15	55612	135.3	374.10612883096
15	55653	135.4	374.06283283164
15	55694	135.5	374.01943081193
15	55735	135.6	373.95474493883
15	55776	135.7	373.87282116266
15	55817	135.8	373.79098856606
15	55858	135.9	373.70887637704
15	55899	136	373.62695816291
15	55940	136.1	373.54513848531
15	55981	136.2	373.46325958925
15	56022	136.3	373.38149093281
15	56063	136.4	373.29938720694
15	56104	136.5	373.21736251449
15	56145	136.6	373.1355890828
15	56186	136.7	373.0537553294
15	56227	136.8	372.9718569394
15	56268	136.9	372.88627480853
15	56309	137	372.77346533876
15	56350	137.1	372.66069723539
15	56391	137.2	372.54794305093
15	56432	137.3	372.43472551416
15	56473	137.4	372.32147069471
15	56514	137.5	372.20821745306
15	56555	137.6	372.09493253102
15	56596	137.7	371.98216394195
15	56637	137.8	371.86892219157
15	56678	137.9	371.75608342391
15	56719	138	371.64316019164
15	56760	138.1	371.53013034763
15	56801	138.2	371.41702450984
15	56842	138.3	371.28023531912
15	56883	138.4	371.14181168693
15	56924	138.5	371.00382176526
15	56965	138.6	370.86570950361
15	57006	138.7	370.72713545839
15	57047	138.8	370.58884888782
15	57088	138.9	370.45044337965
15	57129	139	370.31187134095
15	57170	139.1	370.17386403858
15	57211	139.2	370.03578171448
15	57252	139.3	369.89740817058
15	57293	139.4	369.75934271054
15	57334	139.5	369.61911768444
15	57375	139.6	369.45241980162
15	57416	139.7	369.28621497724
15	57457	139.8	369.12004895277
15	57498	139.9	368.95352252231
15	57539	140	368.78733663883
15	57580	140.1	368.62109992634
15	57621	140.2	368.45456910551
15	57662	140.3	368.28792278917
15	57703	140.4	368.12154485759
15	57744	140.5	367.95496443957
15	57785	140.6	367.78850292403
15	57826	140.7	367.62234762367
15	57867	140.8	367.45602022139
15	57908	140.9	367.28934332084
15	57947	141	367.09197531981
15	57986	141.1	366.8928895389
15	58025	141.2	366.69412821817
15	58064	141.3	366.49526276025
15	58103	141.4	366.2967612456
15	58142	141.5	366.09838549579
15	58181	141.6	365.89929303409
15	58220	141.7	365.70084788864
15	58259	141.8	365.50249509429
15	58298	141.9	365.30414426947
15	58337	142	365.1049189649
15	58376	142.1	364.90571237277
15	58415	142.2	364.70645664272
15	58454	142.3	364.50749210333
15	58493	142.4	364.30794265307
15	58532	142.5	364.06941722627
15	58571	142.6	363.8309624951
15	58610	142.7	363.59285964668
15	58649	142.8	363.35420889471
15	58688	142.9	363.11601353477
15	58727	143	362.87766790504
15	58766	143.1	362.63987423018
15	58805	143.2	362.40149436055
15	58844	143.3	362.16313349222
15	58881	143.4	361.92518533915
15	58918	143.5	361.68634355435
15	58955	143.6	361.44841068713
15	58992	143.7	361.21062773895
15	59029	143.8	360.95079222548
15	59066	143.9	360.67307903071
15	59103	144	360.39428603359
15	59140	144.1	360.1160911885
15	59177	144.2	359.83776828205
15	59214	144.3	359.55965552873
15	59251	144.4	359.28145690901
15	59288	144.5	359.00345641519
15	59325	144.6	358.72555601481
15	59362	144.7	358.44713046475
15	59399	144.8	358.16868710303
15	59436	144.9	357.89051139195
15	59473	145	357.61289122758
15	59510	145.1	357.33459440642
15	59547	145.2	357.05008711122
15	59584	145.3	356.74750365516
15	59621	145.4	356.44379140727
15	59654	145.5	356.14066398336
15	59683	145.6	355.83779272304
15	59712	145.7	355.53441429087
15	59741	145.8	355.23167422024
15	59770	145.9	354.92840143001
15	59799	146	354.6251131511
15	59828	146.1	354.32141977371
15	59857	146.2	354.01836502178
15	59886	146.3	353.71456073729
15	59915	146.4	353.41171134221
15	59944	146.5	353.10819107786
15	59973	146.6	352.7745891955
15	60002	146.7	352.43999013279
15	60031	146.8	352.10655021326
15	60060	146.9	351.77323116133
15	60089	147	351.43850574705
15	60118	147.1	351.10405262429
15	60147	147.2	350.76976585778
15	60176	147.3	350.43593006956
15	60205	147.4	350.10151131677
15	60234	147.5	349.76718202112
15	60263	147.6	349.4331074537
15	60292	147.7	349.09867541538
15	60321	147.8	348.75959839616
15	60350	147.9	348.39552561007
15	60379	148	348.03051760627
15	60408	148.1	347.66609625201
15	60437	148.2	347.30158198252
15	60466	148.3	346.93684516356
15	60495	148.4	346.57217782341
15	60524	148.5	346.20831719674
15	60553	148.6	345.84479794386
15	60582	148.7	345.4812301619
15	60611	148.8	345.11683251268
15	60640	148.9	344.75269369524
15	60669	149	344.38837688404
15	60698	149.1	343.9976780164
15	60727	149.2	343.59236404093
15	60756	149.3	343.1865943857
15	60785	149.4	342.780599238
15	60814	149.5	342.37418035084
15	60843	149.6	341.96751643491
15	60872	149.7	341.56141315103
15	60901	149.8	341.15562718147
15	60930	149.9	340.75033493124
15	60959	150	340.34448786247
15	60988	150.1	339.93955671876
15	61017	150.2	339.54205120188
15	61046	150.3	339.14445190176
15	61075	150.4	338.7483613828
15	61104	150.5	338.35226265772
15	61133	150.6	337.95618103444
15	61162	150.7	337.55846521272
15	61191	150.8	337.16084775382
15	61220	150.9	336.76303852235
15	61249	151	336.36698027735
15	61278	151.1	335.95856162402
15	61307	151.2	335.51665979963
15	61336	151.3	335.07871893448
15	61365	151.4	334.6414129484
15	61394	151.5	334.20240708785
15	61423	151.6	333.76474868636
15	61452	151.7	333.32585488584
15	61481	151.8	332.88659909561
15	61510	151.9	332.44751244612
15	61539	152	332.01009194928
15	61568	152.1	331.57257392953
15	61597	152.2	331.1244662562
15	61626	152.3	330.65709062821
15	61655	152.4	330.18949627496
15	61684	152.5	329.72097349461
15	61713	152.6	329.25252537453
15	61742	152.7	328.78443899657
15	61771	152.8	328.31529777351
15	61800	152.9	327.84583628869
15	61829	153	327.37693535781
15	61858	153.1	326.907475352
15	61887	153.2	326.43948878818
15	61916	153.3	325.97122716762
15	61945	153.4	325.49739703146
15	61974	153.5	325.01633017743
15	62003	153.6	324.53380458506
15	62032	153.7	324.05150684596
15	62061	153.8	323.56931817163
15	62090	153.9	323.08690788298
15	62119	154	322.60424928142
15	62148	154.1	322.12338884772
15	62177	154.2	321.6407308209
15	62206	154.3	321.15944209922
15	62235	154.4	320.67685813919
15	62264	154.5	320.18793735431
15	62293	154.6	319.68109268807
15	62322	154.7	319.17509462535
15	62351	154.8	318.66898366536
15	62380	154.9	318.16160946939
15	62409	155	317.65348195548
15	62438	155.1	317.14722677193
15	62467	155.2	316.6409839921
15	62496	155.3	316.13489246796
15	62525	155.4	315.62831975377
15	62554	155.5	315.12208131518
15	62583	155.6	314.61605999472
15	62612	155.7	314.10896501116
15	62641	155.8	313.60212169302
15	62670	155.9	313.09515327665
15	62699	156	312.63730893353
15	62728	156.1	312.1059733294
15	62757	156.2	311.57422499465
15	62786	156.3	311.04325888681
15	62815	156.4	310.51147365797
15	62844	156.5	309.98049838747
15	62873	156.6	309.44814471834
15	62902	156.7	308.91552870242
15	62931	156.8	308.38492153394
15	62960	156.9	307.85373577974
15	62989	157	307.32132612974
15	63018	157.1	306.78973244013
15	63047	157.2	306.25908818953
15	63076	157.3	305.72622406567
15	63105	157.4	305.19336699938
15	63134	157.5	304.66186951476
15	63163	157.6	304.12937026293
15	63192	157.7	303.59824351297
15	63221	157.8	303.06661661366
15	63250	157.9	302.53523857016
15	63279	158	302.00244313603
15	63306	158.1	301.46958797062
15	63333	158.2	300.93810568161
15	63360	158.3	300.40607664185
15	63387	158.4	299.87322901423
15	63414	158.5	299.34110182043
15	63441	158.6	298.80973889661
15	63468	158.7	298.27715103834
15	63495	158.8	297.74635566736
15	63522	158.9	297.215697669
15	63549	159	296.68506943658
15	63576	159.1	296.15385358437
15	63603	159.2	295.62181580525
15	63630	159.3	295.09063464477
15	63657	159.4	294.55829656612
15	63684	159.5	294.0260255789
15	63711	159.6	293.49449448943
15	63738	159.7	292.96293535233
15	63765	159.8	292.43209665518
15	63792	159.9	291.89967382838
15	63819	160	291.36854962802
15	63846	160.1	290.83786920744
15	63873	160.2	290.30480271792
15	63900	160.3	289.77294212257
15	63927	160.4	289.24154085819
15	63954	160.5	288.71061245881
15	63981	160.6	288.17800975586
15	64008	160.7	287.64711393976
15	64035	160.8	287.11496974239
15	64062	160.9	286.5841656007
15	64089	161	286.05116683329
15	64116	161.1	285.51831447815
15	64141	161.2	284.9877366028
15	64166	161.3	284.45621466577
15	64191	161.4	283.92420568233
15	64216	161.5	283.39156610818
15	64241	161.6	282.86014672154
15	64266	161.7	282.3271714684
15	64291	161.8	281.79489336519
15	64316	161.9	281.26264538109
15	64341	162	280.73111821482
15	64366	162.1	280.19970118917
15	64391	162.2	279.66877972321
15	64416	162.3	279.1380652057
15	64441	162.4	278.60667261611
15	64466	162.5	278.07507115531
15	64491	162.6	277.543014153
15	64516	162.7	277.01239871413
15	64541	162.8	276.47972072089
15	64566	162.9	275.94892371949
15	64591	163	275.41664409108
15	64616	163.1	274.88496727759
15	64641	163.2	274.35362953963
15	64666	163.3	273.82116068841
15	64691	163.4	273.28851736375
15	64716	163.5	272.75673899531
15	64741	163.6	272.2256799703
15	64766	163.7	271.69436850047
15	64791	163.8	271.16160139374
15	64816	163.9	270.63081874815
15	64841	164	270.09896741411
15	64866	164.1	269.5683013697
15	64891	164.2	269.03663710773
15	64916	164.3	268.50378325919
15	64941	164.4	267.97122808473
15	64966	164.5	267.44032739163
15	64991	164.6	266.90905022329
15	65016	164.7	266.37621549895
15	65037	164.8	265.84451996648
15	65058	164.9	265.31357685898
15	65079	165	264.78212589537
15	65100	165.1	264.24941110408
15	65121	165.2	263.71716347035
15	65142	165.3	263.18608660623
15	65163	165.4	262.65554807612
15	65184	165.5	262.1250008134
15	65205	165.6	261.5942986838
15	65226	165.7	261.06363488982
15	65247	165.8	260.53169888581
15	65268	165.9	259.99962896196
15	65289	166	259.4677980456
15	65310	166.1	258.93487121163
15	65331	166.2	258.40239126297
15	65352	166.3	257.87148535721
15	65373	166.4	257.33998604018
15	65394	166.5	256.80856128926
15	65415	166.6	256.27686597129
15	65436	166.7	255.74526721932
15	65457	166.8	255.21288931442
15	65478	166.9	254.68107253458
15	65499	167	254.14803070199
15	65520	167.1	253.61613643618
15	65541	167.2	253.08441901287
15	65562	167.3	252.55344632602
15	65583	167.4	252.02061919579
15	65604	167.5	251.48852774136
15	65625	167.6	250.95614811578
15	65646	167.7	250.42368856853
15	65667	167.8	249.89308159383
15	65688	167.9	249.36108860478
15	65709	168	248.82881251297
15	65730	168.1	248.29666683927
15	65751	168.2	247.76519612736
15	65772	168.3	247.23354381282
15	65793	168.4	246.7009118654
15	65814	168.5	246.16959528276
15	65835	168.6	245.63866783677
15	65856	168.7	245.10601821191
15	65877	168.8	244.57452911832
15	65898	168.9	244.04388360949
15	65919	169	243.51119899146
15	65940	169.1	242.97982198217
15	65961	169.2	242.44766244605
15	65982	169.3	241.91676611978
15	66003	169.4	241.38422266875
15	66024	169.5	240.85322008336
15	66045	169.6	240.32249283942
15	66066	169.7	239.79035543042
15	66087	169.8	239.25859441997
15	66108	169.9	238.72563982646
15	66129	170	238.19260090015
15	66150	170.1	237.66179704673
15	66171	170.2	237.12983706589
15	66192	170.3	236.59917225299
15	66213	170.4	236.0674617852
15	66234	170.5	235.53579654518
15	66255	170.6	235.00405410478
15	66276	170.7	234.47192389867
15	66297	170.8	233.94020911766
15	66318	170.9	233.40930875153
15	66339	171	232.87847665294
15	66360	171.1	232.34785318343
15	66381	171.2	231.81632064778
15	66402	171.3	231.285148088
15	66423	171.4	230.75406697145
15	66444	171.5	230.22163300118
15	66465	171.6	229.69073039399
15	66486	171.7	229.16006220215
15	66507	171.8	228.62836703184
15	66528	171.9	228.09765504669
15	66549	172	227.56590388233
15	66570	172.1	227.03344436095
15	66591	172.2	226.50135485232
15	66612	172.3	225.96907527486
15	66633	172.4	225.43724350403
15	66654	172.5	224.90638347191
15	66675	172.6	224.37405155226
15	66696	172.7	223.8428591663
15	66717	172.8	223.31231829098
15	66738	172.9	222.78055306636
15	66759	173	222.24990481907
15	66780	173.1	221.71733879549
15	66801	173.2	221.18532795764
15	66822	173.3	220.65320938839
15	66843	173.4	220.12258196062
15	66864	173.5	219.59180424567
15	66885	173.6	219.06026605256
15	66906	173.7	218.52829105032
15	66927	173.8	217.99682182201
15	66948	173.9	217.46497076855
15	66969	174	216.93294419611
15	66990	174.1	216.4004436858
15	67011	174.2	215.86921000096
15	67032	174.3	215.33765451981
15	67053	174.4	214.80613051881
15	67074	174.5	214.27403747069
15	67095	174.6	213.74156480711
15	67116	174.7	213.20947950721
15	67137	174.8	212.67887502976
15	67158	174.9	212.14703347939
15	67179	175	211.61501003278
15	67200	175.1	211.08336838222
15	67221	175.2	210.55244136344
15	67242	175.3	210.01992342061
15	67263	175.4	209.48811243184
15	67284	175.5	208.95579825833
15	67305	175.6	208.42457990677
15	67326	175.7	207.89355747879
15	67347	175.8	207.36170958216
15	67368	175.9	206.82950309266
15	67389	176	206.29774608648
15	67410	176.1	205.76486401453
15	67431	176.2	205.23269971643
15	67452	176.3	204.70143807065
15	67473	176.4	204.1688480924
15	67494	176.5	203.63708854658
15	67515	176.6	203.10429598109
15	67536	176.7	202.57164393213
15	67557	176.8	202.03921122167
15	67578	176.9	201.50734988087
15	67599	177	200.9742627824
15	67620	177.1	200.44025433403
15	67641	177.2	199.90584435819
15	67662	177.3	199.37225730153
15	67683	177.4	198.83950080985
15	67704	177.5	198.3054598835
15	67725	177.6	197.77275101831
15	67746	177.7	197.23858291009
15	67767	177.8	196.70646375972
15	67788	177.9	196.17394257511
15	67809	178	195.64186774491
15	67830	178.1	195.10991892271
15	67851	178.2	194.57712345632
15	67872	178.3	194.05731949029
15	67893	178.4	193.53885656763
15	67914	178.5	193.02230637801
15	67935	178.6	192.50453216776
15	67956	178.7	191.98699165448
15	67977	178.8	191.46977918804
15	67998	178.9	190.95261468497
15	68019	179	190.43375896371
15	68040	179.1	189.91536658158
15	68061	179.2	189.39648815632
15	68082	179.3	188.87779828833
15	68103	179.4	188.36088399261
15	68124	179.5	187.84197414049
15	68145	179.6	187.32443597709
15	68166	179.7	186.81515754217
15	68187	179.8	186.31156516322
15	68208	179.9	185.8062444179
15	68229	180	185.30306675192
15	68250	180.1	184.79927708006
15	68271	180.2	184.29534237106
15	68292	180.3	183.79063620663
15	68313	180.4	183.28742606505
15	68334	180.5	182.782314553
15	68355	180.6	182.27833082829
15	68376	180.7	181.77483039635
15	68397	180.8	181.27018925096
15	68418	180.9	180.7655913911
15	68437	181	180.266942789
15	68456	181.1	179.77925969659
15	68475	181.2	179.29274328765
15	68494	181.3	178.80612299972
15	68513	181.4	178.31920449632
15	68532	181.5	177.83147430961
15	68551	181.6	177.34513596659
15	68570	181.7	176.85732055464
15	68589	181.8	176.37008720658
15	68608	181.9	175.88198832404
15	68627	182	175.39405170484
15	68646	182.1	174.90652098789
15	68665	182.2	174.4193858855
15	68684	182.3	173.94630842175
15	68703	182.4	173.4846614964
15	68722	182.5	173.02446989543
15	68741	182.6	172.56434253128
15	68760	182.7	172.10402814075
15	68779	182.8	171.64333661737
15	68798	182.9	171.18211632025
15	68817	183	170.72054271046
15	68836	183.1	170.25993123741
15	68855	183.2	169.79937391645
15	68874	183.3	169.33741211434
15	68893	183.4	168.87635393378
15	68912	183.5	168.41548464865
15	68931	183.6	167.96546785373
15	68950	183.7	167.52219727099
15	68969	183.8	167.07742105807
15	68988	183.9	166.63417122924
15	69007	184	166.18968438693
15	69026	184.1	165.74494031918
15	69045	184.2	165.30016211608
15	69064	184.3	164.85584103483
15	69083	184.4	164.41080461678
15	69102	184.5	163.96643852698
15	69121	184.6	163.52127503626
15	69140	184.7	163.07718249789
15	69159	184.8	162.63331579408
15	69178	184.9	162.1882816212
15	69197	185	161.75171951676
15	69216	185.1	161.33209849987
15	69235	185.2	160.91217009414
15	69254	185.3	160.49205402666
15	69273	185.4	160.07215518495
15	69292	185.5	159.6522596928
15	69311	185.6	159.23263518154
15	69330	185.7	158.81217805749
15	69349	185.8	158.39180644708
15	69368	185.9	157.97142038097
15	69387	186	157.55146965203
15	69406	186.1	157.13159444762
15	69425	186.2	156.71113034598
15	69444	186.3	156.3038481994
15	69463	186.4	155.90625235538
15	69482	186.5	155.50806203971
15	69501	186.6	155.11062976704
15	69520	186.7	154.71323552439
15	69539	186.8	154.31661617878
15	69558	186.9	153.91861111964
15	69577	187	153.52056125391
15	69596	187.1	153.12276014621
15	69615	187.2	152.72615436153
15	69634	187.3	152.32900287528
15	69653	187.4	151.93241506611
15	69672	187.5	151.53583735956
15	69691	187.6	151.13785697372
15	69710	187.7	150.7403673413
15	69729	187.8	150.38428344625
15	69748	187.9	149.9911558192
15	69767	188	149.59916522628
15	69786	188.1	149.20682766239
15	69805	188.2	148.8151973417
15	69824	188.3	148.42214688631
15	69843	188.4	148.02955338356
15	69862	188.5	147.63776438117
15	69881	188.6	147.24542413434
15	69900	188.7	146.85331720497
15	69919	188.8	146.46062515499
15	69938	188.9	146.0681657701
15	69957	189	145.66717275453
15	69976	189.1	145.26474906398
15	69995	189.2	144.86349002316
15	70014	189.3	144.46254205104
15	70033	189.4	144.059762322
15	70052	189.5	143.65736744855
15	70071	189.6	143.25478491916
15	70090	189.7	142.8534492648
15	70109	189.8	142.45079737512
15	70128	189.9	142.04990479011
15	70147	190	141.6478444435
15	70166	190.1	141.26611146549
15	70185	190.2	140.88774351412
15	70204	190.3	140.50983054364
15	70223	190.4	140.13264602639
15	70242	190.5	139.75501149212
15	70261	190.6	139.37713690803
15	70280	190.7	138.99935337916
15	70299	190.8	138.62168028114
15	70318	190.9	138.24376631341
15	70337	191	137.86540734527
15	70356	191.1	137.48690484103
15	70375	191.2	137.10846953432
15	70394	191.3	136.74814508903
15	70413	191.4	136.40677356205
15	70432	191.5	136.06587315317
15	70451	191.6	135.72417636515
15	70470	191.7	135.3820169935
15	70489	191.8	135.04042876608
15	70508	191.9	134.69912786564
15	70527	192	134.35753911511
15	70546	192.1	134.01657839974
15	70565	192.2	133.67583147216
15	70584	192.3	133.3349672307
15	70603	192.4	132.87029469184
15	70622	192.5	132.09006397313
15	70641	192.6	131.31062417005
15	70660	192.7	130.57940447357
15	70679	192.8	130.28652723499
15	70698	192.9	129.99251445551
15	70717	193	129.69953041997
15	70736	193.1	129.40640745387
15	70755	193.2	129.11327472103
15	70774	193.3	128.81939766087
15	70793	193.4	128.52545084537
15	70812	193.5	128.23179778898
15	70831	193.6	127.93873403965
15	70850	193.7	127.64511121989
15	70869	193.8	127.35216804321
15	70888	193.9	127.05840832489
15	70907	194	126.76502232699
15	70926	194.1	126.49868868345
15	70945	194.2	126.23807600841
15	70964	194.3	125.97671897125
15	70983	194.4	125.71588234508
15	71002	194.5	125.45488537803
15	71021	194.6	125.19413417743
15	71040	194.7	124.93307496264
15	71059	194.8	124.67181348216
15	71078	194.9	124.41123171178
15	71097	195	124.15066621226
15	71116	195.1	123.89033197612
15	71135	195.2	123.62908309362
15	71154	195.3	123.3686635632
15	71173	195.4	123.10827907269
15	71192	195.5	122.84767024096
15	71211	195.6	122.59809920556
15	71230	195.7	122.35118209031
15	71249	195.8	122.10444989468
15	71268	195.9	121.85786285802
15	71287	196	121.61120005151
15	71306	196.1	121.36452549821
15	71325	196.2	121.11828933444
15	71344	196.3	120.87208879655
15	71363	196.4	120.62582545364
15	71382	196.5	120.37963397955
15	71401	196.6	120.13308133033
15	71420	196.7	119.88699137703
15	71439	196.8	119.64048056248
15	71458	196.9	119.39396669105
15	71477	197	119.14829321267
15	71496	197.1	118.91067960221
15	71515	197.2	118.67235169551
15	71534	197.3	118.43411753244
15	71553	197.4	118.1958784833
15	71572	197.5	117.95823535499
15	71591	197.6	117.72004749141
15	71610	197.7	117.48204785611
15	71629	197.8	117.24371126073
15	71648	197.9	117.00558969341
15	71667	198	116.76829736055
15	71686	198.1	116.53048842634
15	71705	198.2	116.29227302557
15	71724	198.3	116.05447983526
15	71743	198.4	115.8171639873
15	71762	198.5	115.61331065524
15	71781	198.6	115.41523670451
15	71800	198.7	115.2170605092
15	71819	198.8	115.01933588116
15	71838	198.9	114.82111868988
15	71857	199	114.62291449013
15	71876	199.1	114.4245495069
15	71895	199.2	114.22692165761
15	71914	199.3	114.02890046762
15	71933	199.4	113.83098689817
15	71952	199.5	113.63323862792
15	71971	199.6	113.43554684622
15	71990	199.7	113.23752528696
15	72009	199.8	113.03925484003
15	72028	199.9	112.85275061015
15	72047	200	112.6922376657
