version 2
run General-0-20170202-18:50:57-24500
attr configname General
attr datetime 20170202-18:50:57
attr experiment General
attr inifile omnetpp.ini
attr iterationvars ""
attr iterationvars2 $repetition=0
attr measurement ""
attr network com.liborio.cooperativepositioning.LocScenario
attr processid 24500
attr repetition 0
attr replication #0
attr resultdir results
attr runnumber 0
attr seedset 0
param **.coreDebug false
param **.debug false
param *.**.nic.mac1609_4.bitrate 18Mbps
param *.**.nic.mac1609_4.txPower 20mW
param *.**.nic.mac1609_4.useServiceChannel false
param *.**.nic.phy80211p.analogueModels "xmldoc(\"config_splm.xml\")"
param *.**.nic.phy80211p.decider "xmldoc(\"config_splm.xml\")"
param *.**.nic.phy80211p.sensitivity -89dBm
param *.**.nic.phy80211p.thermalNoise -110dBm
param *.**.nic.phy80211p.usePropagationDelay true
param *.**.nic.phy80211p.useThermalNoise true
param *.annotations.draw false
param *.connectionManager.alpha 2.0
param *.connectionManager.carrierFrequency "5.890e9 Hz"
param *.connectionManager.pMax 20mW
param *.connectionManager.sat -89dBm
param *.connectionManager.sendDirect true
param *.manager.autoShutdown true
param *.manager.host "\"localhost\""
param *.manager.launchConfig "xmldoc(\"ybt.launchd.xml\")"
param *.manager.margin 25
param *.manager.moduleDisplayString "\"\""
param *.manager.moduleName "\"node\""
param *.manager.moduleType "\"org.car2x.veins.nodes.Car\""
param *.manager.port 9999
param *.manager.updateInterval 0.1s
param *.node[*].appl.beaconInterval 0.1s
param *.node[*].appl.beaconPriority 3
param *.node[*].appl.dataOnSch false
param *.node[*].appl.dataPriority 2
param *.node[*].appl.debug false
param *.node[*].appl.headerLength "256 bit"
param *.node[*].appl.maxOffset 0.005s
param *.node[*].appl.sendBeacons true
param *.node[*].appl.sendData true
param *.node[*].applType "\"LocAppCom\""
param *.node[*].mobilityType "\"TraCIMobility\""
param *.node[*].mobilityType.debug true
param *.node[*].veinsmobility.x 0
param *.node[*].veinsmobility.y 0
param *.node[*].veinsmobility.z 1.895
param *.node[*].veinsmobilityType "\"org.car2x.veins.modules.mobility.traci.TraCIMobility\""
param *.node[*].veinsmobilityType.debug true
param *.playgroundSizeX 10000m
param *.playgroundSizeY 10000m
param *.playgroundSizeZ 50m
param *.world.use2D false
param *.world.useTorus false

vector 2  LocScenario.node[0].veinsmobility  posx  ETV
vector 3  LocScenario.node[0].veinsmobility  posy  ETV
vector 9  LocScenario.node[1].veinsmobility  posx  ETV
vector 10  LocScenario.node[1].veinsmobility  posy  ETV
vector 4  LocScenario.node[0].veinsmobility  speed  ETV
vector 11  LocScenario.node[1].veinsmobility  speed  ETV
vector 5  LocScenario.node[0].veinsmobility  acceleration  ETV
vector 6  LocScenario.node[0].veinsmobility  co2emission  ETV
vector 12  LocScenario.node[1].veinsmobility  acceleration  ETV
vector 13  LocScenario.node[1].veinsmobility  co2emission  ETV
6	40	0.3	3.6103273543063
6	59	0.4	4.0560299086874
6	78	0.5	1.653551228134
6	97	0.6	4.6638183392551
6	116	0.7	0.973
6	135	0.8	2.6956542373627
6	154	0.9	7.2640178448774
6	173	1	0.35462444811365
6	192	1.1	5.0414479459412
6	211	1.2	2.9325305923199
6	230	1.3	0.70694781413747
6	249	1.4	9.1991673562051
6	268	1.5	3.1047666082511
6	287	1.6	3.6874935597263
6	306	1.7	0.973
6	325	1.8	3.5803294693298
6	344	1.9	2.5585378739109
6	363	2	2.4397037253474
6	382	2.1	4.450966883719
6	401	2.2	5.5665042458207
6	420	2.3	0.97670849578077
6	439	2.4	7.8507297344983
6	458	2.5	0.973
6	477	2.6	6.6902299779693
6	496	2.7	0.973
6	515	2.8	6.1585872433554
6	534	2.9	3.9582032928511
6	553	3	4.2625646134832
6	572	3.1	0.973
6	591	3.2	5.429855271034
6	610	3.3	2.4221122809155
6	629	3.4	7.0673840161688
6	648	3.5	0.973
6	667	3.6	3.243349846983
6	686	3.7	3.1708229478941
6	705	3.8	0.92082895377643
6	724	3.9	5.0298257633438
6	743	4	5.4629952896689
6	762	4.1	2.6674629905463
6	781	4.2	1.385255222782
6	800	4.3	7.6797648855665
6	819	4.4	0.973
6	838	4.5	3.1762830373598
6	857	4.6	6.4332924813722
6	876	4.7	3.7863348739137
6	895	4.8	1.908328822602
6	914	4.9	2.8733288461581
6	933	5	1.7646363281503
6	952	5.1	4.1280010905655
6	971	5.2	0.973
6	990	5.3	9.4196548854984
6	1009	5.4	2.4672919619957
6	1028	5.5	3.5483656688235
6	1047	5.6	0.973
6	1066	5.7	6.0088659650569
6	1085	5.8	1.7206496538158
6	1104	5.9	4.7650743963882
6	1123	6	3.8134883096985
6	1142	6.1	3.5568870664632
6	1161	6.2	0.973
6	1180	6.3	6.8414394574096
6	1199	6.4	2.806285551897
6	1218	6.5	2.0077755116617
6	1237	6.6	0.973
6	1256	6.7	8.2831698694885
6	1275	6.8	0.973
6	1294	6.9	8.4088757888689
6	1313	7	0.973
6	1332	7.1	6.7542719917187
6	1351	7.2	0.973
6	1370	7.3	5.7999576689586
6	1389	7.4	2.2644465725068
6	1408	7.5	8.1195531022834
6	1427	7.6	1.5095799069072
6	1446	7.7	4.354440095111
6	1465	7.8	1.9824545329515
6	1484	7.9	4.458061864101
6	1503	8	1.8191489565069
6	1522	8.1	2.5369254374713
6	1541	8.2	5.6686389998927
6	1560	8.3	0.973
6	1579	8.4	4.0842692620816
6	1598	8.5	5.3189861538136
6	1617	8.6	1.4067465311211
6	1636	8.7	6.2217116340836
6	1655	8.8	0.973
6	1674	8.9	0.73617961306384
6	1693	9	7.480335436558
6	1712	9.1	0.77016799348481
6	1731	9.2	6.9639357089926
6	1750	9.3	0.973
6	1769	9.4	6.1968758376939
6	1788	9.5	3.9580200683249
6	1807	9.6	0.39078875181124
6	1826	9.7	7.1846752376314
6	1845	9.8	0.973
6	1864	9.9	8.9908110226707
6	1883	10	0.973
6	1902	10.1	6.0640620810854
6	1921	10.2	0.973
6	1940	10.3	1.6156807011835
6	1959	10.4	8.201910354315
6	1978	10.5	0.92067999854803
6	1997	10.6	3.0943362285659
6	2016	10.7	3.3437725570705
6	2035	10.8	5.6559103458698
6	2054	10.9	0.973
6	2073	11	6.7399799298314
6	2092	11.1	0.41692767908059
6	2111	11.2	4.2272395352466
6	2130	11.3	6.022635617705
6	2149	11.4	0.973
6	2168	11.5	6.1251527883969
6	2187	11.6	0.973
6	2206	11.7	5.2978311845118
6	2225	11.8	1.1050708427811
6	2244	11.9	4.522272295838
6	2263	12	2.9738006779076
6	2282	12.1	4.7708142598019
6	2301	12.2	0.973
6	2320	12.3	5.3810991382969
6	2339	12.4	4.7468870701507
6	2358	12.5	1.9311641299129
6	2377	12.6	7.3303115892075
6	2396	12.7	1.2383634074211
6	2415	12.8	0.70217903945674
6	2434	12.9	5.7996148808631
6	2453	13	0.91650446876739
6	2472	13.1	4.5309750001901
6	2491	13.2	5.268331828376
6	2510	13.3	2.0742357019062
6	2529	13.4	1.309630370836
6	2548	13.5	3.0593104355356
6	2567	13.6	3.3210917297665
6	2586	13.7	2.6534965546758
6	2605	13.8	3.2113875115387
6	2624	13.9	4.7504757785168
6	2643	14	0.973
6	2662	14.1	6.9067731100026
6	2681	14.2	2.7318916400251
6	2700	14.3	0.973
6	2719	14.4	3.7974993368083
6	2738	14.5	3.9159175972988
6	2757	14.6	7.4416097804492
6	2776	14.7	0.973
6	2795	14.8	4.6334137940121
6	2814	14.9	1.2140730659633
6	2833	15	9.1584237425283
6	2852	15.1	0.973
6	2871	15.2	8.1519246134505
6	2890	15.3	0.973
6	2909	15.4	6.6573149552447
6	2928	15.5	0.973
6	2947	15.6	3.4835670131626
6	2966	15.7	4.8682781596952
6	2985	15.8	4.3407499562974
6	3004	15.9	5.5837582220349
6	3023	16	0.973
6	3042	16.1	4.911774561874
6	3061	16.2	1.3297444657699
6	3080	16.3	2.1930456236861
6	3099	16.4	2.4360536041987
6	3118	16.5	4.0329443629243
6	3137	16.6	9.1293533778395
6	3156	16.7	0.77726266679349
6	3175	16.8	0.62193172140869
6	3194	16.9	7.1212322796077
6	3213	17	0.76767451954952
6	3232	17.1	6.4851036051007
6	3251	17.2	2.1959110481587
6	3270	17.3	4.489658101107
6	3289	17.4	0.973
6	3308	17.5	7.1985826910156
6	3327	17.6	2.3625888114769
6	3346	17.7	0.973
6	3365	17.8	4.7622249305394
6	3384	17.9	7.9274123595847
6	3403	18	2.2861231192404
6	3422	18.1	0.973
6	3441	18.2	3.5143470538549
6	3460	18.3	5.5865725965022
6	3479	18.4	0.973
6	3498	18.5	5.4391021770281
6	3517	18.6	3.7533432633706
6	3536	18.7	2.8264740566713
6	3555	18.8	2.2242183027983
6	3574	18.9	6.1348212203283
6	3593	19	2.6071369804951
6	3612	19.1	4.5318802246596
6	3631	19.2	3.3804264421525
6	3650	19.3	0.973
6	3669	19.4	4.6296654982533
6	3688	19.5	4.9468646965442
6	3707	19.6	5.0534646065113
6	3726	19.7	3.0249715621584
6	3745	19.8	4.5923741593673
6	3764	19.9	0.58008801140706
6	3783	20	4.0690202479681
6	3802	20.1	0.52086989690477
6	3821	20.2	5.4363180819388
6	3840	20.3	4.6011913535961
6	3859	20.4	4.3035815438115
6	3878	20.5	2.9199048630439
6	3897	20.6	0.973
6	3916	20.7	4.784733322439
6	3935	20.8	2.6279684286214
6	3954	20.9	0.68952998566904
6	3973	21	2.5434744712176
6	3992	21.1	8.6232586804389
6	4011	21.2	0.973
6	4030	21.3	6.008033988103
6	4049	21.4	4.9180537210395
6	4068	21.5	0.973
6	4087	21.6	6.2755621423256
6	4106	21.7	2.7669422511536
6	4125	21.8	1.775745163628
6	4144	21.9	1.5079656755605
6	4163	22	4.6140348311519
6	4182	22.1	1.5008436943729
6	4201	22.2	7.4013182833811
6	4220	22.3	0.973
6	4239	22.4	7.4986376215079
6	4258	22.5	0.973
6	4277	22.6	5.0531709067899
6	4296	22.7	6.5150727637726
6	4315	22.8	0.973
6	4334	22.9	4.7114784040809
6	4353	23	6.5478981460237
6	4372	23.1	3.4984865605383
6	4391	23.2	1.0784907949649
6	4410	23.3	6.6672512439096
6	4429	23.4	1.942956499001
6	4448	23.5	1.6919844056915
6	4467	23.6	3.563398922797
6	4486	23.7	2.5839329306542
6	4505	23.8	4.5127264199266
6	4524	23.9	1.0479100446951
6	4543	24	1.2682510283568
6	4562	24.1	8.4390378505955
6	4581	24.2	0.41557768752496
6	4600	24.3	5.9122822153306
6	4619	24.4	0.973
6	4638	24.5	5.4510653592422
6	4657	24.6	2.0238110568534
6	4676	24.7	5.8880672016924
6	4695	24.8	3.4848836261937
6	4714	24.9	0.81128164979514
6	4733	25	4.1363805948743
6	4752	25.1	0.973
6	4771	25.2	4.421684026972
6	4790	25.3	3.3175631299063
6	4809	25.4	2.1176308736672
6	4828	25.5	8.9586321174797
6	4847	25.6	0.973
6	4866	25.7	2.980074339289
6	4885	25.8	0.56797968644779
6	4904	25.9	7.894493842028
6	4923	26	3.5725173972726
6	4942	26.1	4.2005659040351
6	4961	26.2	3.8062966094068
6	4980	26.3	0.973
6	4999	26.4	5.0140928847512
6	5018	26.5	2.3972931933994
6	5037	26.6	6.732001709867
6	5056	26.7	1.0791465646221
6	5075	26.8	6.874962031164
6	5094	26.9	0.26343476261865
6	5113	27	0.973
6	5132	27.1	3.9018731919332
6	5151	27.2	6.9735410658975
6	5170	27.3	0.973
6	5189	27.4	8.3177326425912
6	5208	27.5	0.973
6	5227	27.6	3.2520607130886
6	5246	27.7	4.1911024553837
6	5265	27.8	4.3815839121352
6	5284	27.9	1.4996276390339
6	5303	28	7.275657572279
6	5322	28.1	0.973
6	5341	28.2	4.816731641674
6	5360	28.3	7.4527072263041
6	5379	28.4	0.87709188892686
6	5398	28.5	4.6088156020015
6	5417	28.6	0.973
6	5436	28.7	6.723466700358
6	5455	28.8	3.0746623580447
6	5474	28.9	2.2128482953645
6	5493	29	5.1033412041567
6	5512	29.1	4.8372127101707
6	5531	29.2	0.973
6	5550	29.3	7.6373342769354
6	5569	29.4	0.96280322115256
6	5588	29.5	5.2211124599963
6	5607	29.6	4.1022275828563
6	5626	29.7	0.973
6	5645	29.8	2.4250424990967
6	5664	29.9	3.2804393212589
6	5683	30	3.5756701450113
6	5702	30.1	4.1244687049995
6	5721	30.2	6.2927660281644
6	5740	30.3	4.9815867949666
6	5759	30.4	0.93134222584487
6	5778	30.5	4.4376704095742
6	5797	30.6	3.91421099526
6	5816	30.7	3.7716452714006
6	5835	30.8	0.973
6	5854	30.9	8.2196812417907
6	5873	31	0.973
6	5892	31.1	7.5790608829477
6	5911	31.2	3.6894884824928
6	5930	31.3	3.1467859024841
6	5949	31.4	0.973
6	5968	31.5	6.197026100516
6	5987	31.6	1.9857246220605
6	6006	31.7	2.2510107805184
6	6025	31.8	1.0863717306314
6	6044	31.9	4.132819571183
6	6063	32	6.40597535171
6	6082	32.1	4.1878084175671
6	6101	32.2	3.7509279354717
6	6120	32.3	1.4911015803464
6	6139	32.4	3.4891891861103
6	6158	32.5	1.8534744458064
6	6177	32.6	1.6188027159578
6	6196	32.7	3.1165944487839
6	6215	32.8	6.0935568229529
6	6234	32.9	2.5367248854406
6	6253	33	4.6055329603937
6	6272	33.1	0.973
6	6291	33.2	8.3399707829571
6	6310	33.3	0.973
6	6329	33.4	2.6311979797376
6	6348	33.5	3.2096862410716
6	6367	33.6	6.834813473136
6	6386	33.7	2.4112047023355
6	6405	33.8	1.7134172531829
6	6424	33.9	5.4135553505697
6	6443	34	2.5255700032275
6	6462	34.1	4.4303207754652
6	6481	34.2	1.3730928044316
6	6500	34.3	6.1253166081504
6	6519	34.4	0.973
6	6538	34.5	8.2768855949148
6	6557	34.6	0.973
6	6576	34.7	4.6940802905627
6	6595	34.8	1.3161591770676
6	6614	34.9	0.53715398415428
6	6633	35	5.3933859996942
6	6652	35.1	7.4906058497865
6	6671	35.2	0.44984068382832
6	6690	35.3	2.6513356422359
6	6709	35.4	3.023918056746
6	6728	35.5	2.1902222143543
6	6747	35.6	6.0357035757117
6	6766	35.7	4.2570901379565
6	6785	35.8	1.3669174008667
6	6804	35.9	0.973
6	6823	36	8.5957699061816
6	6842	36.1	0.973
6	6861	36.2	5.7204267343306
6	6880	36.3	3.8152862700316
6	6899	36.4	0.973
6	6918	36.5	6.1655126485903
6	6937	36.6	1.3502810086374
6	6956	36.7	5.4812904393959
6	6975	36.8	0.973
6	6994	36.9	4.6954198660402
6	7013	37	3.1356575043379
6	7032	37.1	5.8107564677859
6	7051	37.2	0.973
6	7070	37.3	4.046286571414
6	7089	37.4	5.9830002916656
6	7108	37.5	3.7716485589845
6	7127	37.6	0.973
6	7146	37.7	2.0628972933188
6	7165	37.8	6.7073913172364
6	7184	37.9	2.2781873711042
6	7203	38	1.3403213123996
6	7222	38.1	6.0053773804596
6	7241	38.2	0.973
6	7260	38.3	5.8304658829727
6	7279	38.4	1.4921906298031
6	7298	38.5	2.5840682226772
6	7317	38.6	3.8501405618604
6	7336	38.7	7.8056311840153
6	7355	38.8	0.973
6	7374	38.9	4.8198885841321
6	7393	39	5.5679393133678
6	7412	39.1	0.68543078729581
6	7431	39.2	4.3693094570739
6	7450	39.3	0.973
6	7469	39.4	8.9295727098624
6	7488	39.5	0.973
6	7507	39.6	7.4288229224556
6	7526	39.7	3.2015190363461
6	7545	39.8	5.6023057568143
6	7564	39.9	2.0335871492054
6	7583	40	1.7006443906787
5	40	0.3	0.075244250893611
5	59	0.4	0.15759689477271
5	78	0.5	-0.2889111137949
5	97	0.6	0.27079897664954
5	116	0.7	-0.5904415293131
5	135	0.8	-0.093456690991296
5	154	0.9	0.75428761555813
5	173	1	-0.53076856574044
5	192	1.1	0.34167914546561
5	211	1.2	-0.050894534890524
5	230	1.3	-0.46481769031381
5	249	1.4	1.1109287468717
5	268	1.5	-0.020921209733942
5	287	1.6	0.086984167201436
5	306	1.7	-1.0561218768358
5	325	1.8	0.070802011736681
5	344	1.9	-0.11941200487779
5	363	2	-0.14118805692998
5	382	2.1	0.23329771277496
5	401	2.2	0.43898296135012
5	420	2.3	-0.41476475670933
5	439	2.4	0.86093117746056
5	458	2.5	-0.6781405712012
5	477	2.6	0.64553805093745
5	496	2.7	-1.0417103230487
5	515	2.8	0.54966676756738
5	534	2.9	0.13934230317826
5	553	3	0.19513822861484
5	572	3.1	-0.66258149761708
5	591	3.2	0.41350835571066
5	610	3.3	-0.14596869607921
5	629	3.4	0.7145373953972
5	648	3.5	-0.77849941367749
5	667	3.6	0.0072017119033063
5	686	3.7	-0.0062897590454725
5	705	3.8	-0.42485829961951
5	724	3.9	0.34050611066633
5	743	4	0.41900611452292
5	762	4.1	-0.10078126578591
5	781	4.2	-0.33877901558299
5	800	4.3	0.82862744759769
5	819	4.4	-0.78850361821242
5	838	4.5	-0.005032511148606
5	857	4.6	0.59833190564532
5	876	4.7	0.10589314231183
5	895	4.8	-0.24245266669894
5	914	4.9	-0.062767150881697
5	933	5	-0.2684318033047
5	952	5.1	0.17107384132686
5	971	5.2	-0.71470401398837
5	990	5.3	1.1522277325392
5	1009	5.4	-0.13888153729496
5	1028	5.5	0.06183742163703
5	1047	5.6	-0.63933845416177
5	1066	5.7	0.51976173697039
5	1085	5.8	-0.27692492294591
5	1104	5.9	0.28845074018463
5	1123	6	0.11109280204401
5	1142	6.1	0.063172781513998
5	1161	6.2	-0.70974078867582
5	1180	6.3	0.6735906352289
5	1199	6.4	-0.075919229350987
5	1218	6.5	-0.22378565173131
5	1237	6.6	-0.58794848474207
5	1256	6.7	0.94105954768601
5	1275	6.8	-0.96309672617355
5	1294	6.9	0.96440045721831
5	1313	7	-1.1444693833357
5	1332	7.1	0.66015074697788
5	1351	7.2	-0.66054286023135
5	1370	7.3	0.48349024462514
5	1389	7.4	-0.1747434823308
5	1408	7.5	0.91009853009599
5	1427	7.6	-0.31670492165723
5	1446	7.7	0.21139351334423
5	1465	7.8	-0.22872672511728
5	1484	7.9	0.23063623050692
5	1503	8	-0.25903209671377
5	1522	8.1	-0.12516375959386
5	1541	8.2	0.45515013355761
5	1560	8.3	-0.81682200382929
5	1579	8.4	0.16363187215756
5	1598	8.5	0.39157554456033
5	1617	8.6	-0.33521613036282
5	1636	8.7	0.55809981101191
5	1655	8.8	-0.62660778593269
5	1674	8.9	-0.45935461346527
5	1693	9	0.7939454157604
5	1712	9.1	-0.453493847698
5	1731	9.2	0.6962962685153
5	1750	9.3	-0.75988813659642
5	1769	9.4	0.55499743893744
5	1788	9.5	0.13807914576027
5	1807	9.6	-0.52431804041845
5	1826	9.7	0.73632699721493
5	1845	9.8	-1.0514822211116
5	1864	9.9	1.0715179101098
5	1883	10	-0.87505737438331
5	1902	10.1	0.53015114185399
5	1921	10.2	-0.60474186732897
5	1940	10.3	-0.29509288182016
5	1959	10.4	0.92746602671685
5	1978	10.5	-0.42562545498367
5	1997	10.6	-0.020649967738429
5	2016	10.7	0.025727032450966
5	2035	10.8	0.45392135209404
5	2054	10.9	-0.94856759216636
5	2073	11	0.65731071992776
5	2092	11.1	-0.51906827385537
5	2111	11.2	0.1910082052229
5	2130	11.3	0.52265502356459
5	2149	11.4	-0.67126912840177
5	2168	11.5	0.54247970506548
5	2187	11.6	-0.62997670059559
5	2206	11.7	0.38977942243218
5	2225	11.8	-0.39060122875959
5	2244	11.9	0.24596489844843
5	2263	12	-0.042539496882839
5	2282	12.1	0.29110886785205
5	2301	12.2	-0.59118703368586
5	2320	12.3	0.40572147620843
5	2339	12.4	0.28617569834459
5	2358	12.5	-0.23729962480722
5	2377	12.6	0.76336002112367
5	2396	12.7	-0.36709610028193
5	2415	12.8	-0.46617833878845
5	2434	12.9	0.48112470696214
5	2453	13	-0.42631916205863
5	2472	13.1	0.24602074681315
5	2491	13.2	0.38128301901743
5	2510	13.3	-0.21165073702576
5	2529	13.4	-0.35318735884502
5	2548	13.5	-0.027180206822237
5	2567	13.6	0.021511759283008
5	2586	13.7	-0.10253822749945
5	2605	13.8	0.0014268033904941
5	2624	13.9	0.28689029184168
5	2643	14	-0.60466661294921
5	2662	14.1	0.68768014463132
5	2681	14.2	-0.088793961983171
5	2700	14.3	-0.59287597052755
5	2719	14.4	0.11144817632157
5	2738	14.5	0.13299702811057
5	2757	14.6	0.78476020868401
5	2776	14.7	-1.0650324443355
5	2795	14.8	0.26681370898149
5	2814	14.9	-0.36998741582501
5	2833	15	1.1042183076497
5	2852	15.1	-0.93428108268419
5	2871	15.2	0.91732306799386
5	2890	15.3	-0.58898662694261
5	2909	15.4	0.63926146058364
5	2928	15.5	-0.94144471837208
5	2947	15.6	0.052896047080857
5	2966	15.7	0.30968368079048
5	2985	15.8	0.2104926806409
5	3004	15.9	0.43942119968126
5	3023	16	-0.81674031689765
5	3042	16.1	0.31705191987566
5	3061	16.2	-0.34906680237036
5	3080	16.3	-0.18762473710812
5	3099	16.4	-0.14188094192651
5	3118	16.5	0.15563361982348
5	3137	16.6	1.0973160399357
5	3156	16.7	-0.45274317082949
5	3175	16.8	-0.48101625344717
5	3194	16.9	0.72586914945862
5	3213	17	-0.45422900314446
5	3232	17.1	0.6067082020687
5	3251	17.2	-0.18935610118785
5	3270	17.3	0.23591715069486
5	3289	17.4	-1.0077286808519
5	3308	17.5	0.74070492568424
5	3327	17.6	-0.15785509459672
5	3346	17.7	-0.75754849833903
5	3365	17.8	0.2907669613138
5	3384	17.9	0.87434811803977
5	3403	18	-0.17271180234385
5	3422	18.1	-0.59381952527911
5	3441	18.2	0.057524767890591
5	3460	18.3	0.44113650145007
5	3479	18.4	-0.90521754289512
5	3498	18.5	0.41632246398368
5	3517	18.6	0.10183310182764
5	3536	18.7	-0.07056033459957
5	3555	18.8	-0.18227566310671
5	3574	18.9	0.54363013997207
5	3593	19	-0.11215889339798
5	3612	19.1	0.24489050731063
5	3631	19.2	0.03074597325174
5	3650	19.3	-0.98563319805542
5	3669	19.4	0.26626806955317
5	3688	19.5	0.3238195931306
5	3707	19.6	0.34195742446464
5	3726	19.7	-0.035024409648017
5	3745	19.8	0.25522551639007
5	3764	19.9	-0.48930370637684
5	3783	20	0.15940697770567
5	3802	20.1	-0.49991189157591
5	3821	20.2	0.41416914302392
5	3840	20.3	0.25759260770865
5	3859	20.4	0.20140243330971
5	3878	20.5	-0.055342172645041
5	3897	20.6	-0.79578608842567
5	3916	20.7	0.29340471711475
5	3935	20.8	-0.10774707992095
5	3954	20.9	-0.46811970607379
5	3973	21	-0.12176795243285
5	3992	21.1	1.0054745544912
5	4011	21.2	-0.58003558933269
5	4030	21.3	0.51968257317785
5	4049	21.4	0.31547278529032
5	4068	21.5	-0.95904594133607
5	4087	21.6	0.56986995928455
5	4106	21.7	-0.082480770372797
5	4125	21.8	-0.26630919405726
5	4144	21.9	-0.31555074229836
5	4163	22	0.26268659131603
5	4182	22.1	-0.31676945118235
5	4201	22.2	0.77884121155368
5	4220	22.3	-0.68185623618774
5	4239	22.4	0.79613415328787
5	4258	22.5	-0.99730242954102
5	4277	22.6	0.34489440107716
5	4296	22.7	0.61357477353887
5	4315	22.8	-0.95142179189715
5	4334	22.9	0.2814692296786
5	4353	23	0.61998840430753
5	4372	23.1	0.05281857163645
5	4391	23.2	-0.39635535739361
5	4410	23.3	0.6402993972646
5	4429	23.4	-0.23634957484902
5	4448	23.5	-0.2823800023878
5	4467	23.6	0.065670132613747
5	4486	23.7	-0.1162270774832
5	4505	23.8	0.24173072867558
5	4524	23.9	-0.40190232801251
5	4543	24	-0.360192632745
5	4562	24.1	0.97022086698562
5	4581	24.2	-0.51980142979883
5	4600	24.3	0.50090430187993
5	4619	24.4	-0.7602290412644
5	4638	24.5	0.41703996895812
5	4657	24.6	-0.22017008508556
5	4676	24.7	0.49678390854968
5	4695	24.8	0.04996170015076
5	4714	24.9	-0.44617107869126
5	4733	25	0.17217661445027
5	4752	25.1	-0.7602649814682
5	4771	25.2	0.22763870884667
5	4790	25.3	0.021660116291606
5	4809	25.4	-0.20157294950916
5	4828	25.5	1.0663864962058
5	4847	25.6	-0.6094010477187
5	4866	25.7	-0.041968681151054
5	4885	25.8	-0.490698404517
5	4904	25.9	0.87072550863958
5	4923	26	0.066714379563919
5	4942	26.1	0.18269528239035
5	4961	26.2	0.10902360731269
5	4980	26.3	-1.1870295929024
5	4999	26.4	0.33749660863542
5	5018	26.5	-0.14980727843941
5	5037	26.6	0.65444964785129
5	5056	26.7	-0.3960840854328
5	5075	26.8	0.67919137540738
5	5094	26.9	-0.54817402597983
5	5113	27	-0.63942780434154
5	5132	27.1	0.13128686069976
5	5151	27.2	0.69985017231666
5	5170	27.3	-0.81043456213081
5	5189	27.4	0.94882909180594
5	5208	27.5	-0.93290235514285
5	5227	27.6	0.010323451855214
5	5246	27.7	0.18482765639199
5	5265	27.8	0.21938104385047
5	5284	27.9	-0.31699204465841
5	5303	28	0.75564799162095
5	5322	28.1	-0.72270025108011
5	5341	28.2	0.3003869207576
5	5360	28.3	0.78603178574703
5	5379	28.4	-0.43419565143992
5	5398	28.5	0.25882044723257
5	5417	28.6	-1.083795084944
5	5436	28.7	0.65449680446182
5	5455	28.8	-0.024727379321128
5	5474	28.9	-0.18470549359918
5	5493	29	0.35215428743978
5	5512	29.1	0.30118962768466
5	5531	29.2	-0.89078269910534
5	5550	29.3	0.82195076746867
5	5569	29.4	-0.4179123891052
5	5588	29.5	0.37310254585464
5	5607	29.6	0.1644142992329
5	5626	29.7	-0.99365113638342
5	5645	29.8	-0.14394636889921
5	5664	29.9	0.015710286377022
5	5683	30	0.070562903443339
5	5702	30.1	0.17226061022374
5	5721	30.2	0.57317283404991
5	5740	30.3	0.32765689303634
5	5759	30.4	-0.42398170793895
5	5778	30.5	0.22750913402998
5	5797	30.6	0.12967046108095
5	5816	30.7	0.10277859221681
5	5835	30.8	-0.87381734775846
5	5854	30.9	0.92841698683333
5	5873	31	-0.9868992817821
5	5892	31.1	0.81072433933148
5	5911	31.2	0.087651921296512
5	5930	31.3	-0.013105230289518
5	5949	31.4	-0.75717820073479
5	5968	31.5	0.55468476733658
5	5987	31.6	-0.22772392381448
5	6006	31.7	-0.17787812219467
5	6025	31.8	-0.39413710040972
5	6044	31.9	0.17355897990058
5	6063	32	0.5937312683789
5	6082	32.1	0.18049864007626
5	6101	32.2	0.098941022623329
5	6120	32.3	-0.32009161210155
5	6139	32.4	0.051324631739398
5	6158	32.5	-0.25222914097828
5	6177	32.6	-0.29528300077654
5	6196	32.7	-0.016047346103036
5	6215	32.8	0.53573857713491
5	6234	32.9	-0.12533053376245
5	6253	33	0.25840878509918
5	6272	33.1	-0.78961291711313
5	6291	33.2	0.95120667400767
5	6310	33.3	-0.83219391957389
5	6329	33.4	-0.1062076015398
5	6348	33.5	0.0016741905827189
5	6367	33.6	0.67338049006647
5	6386	33.7	-0.14870774610898
5	6405	33.8	-0.27792244642043
5	6424	33.9	0.40921106175521
5	6443	34	-0.12744017408696
5	6462	34.1	0.22593807918021
5	6481	34.2	-0.34164208141156
5	6500	34.3	0.53981665582398
5	6519	34.4	-0.98173866169528
5	6538	34.5	0.9396912710741
5	6557	34.6	-0.57444231475237
5	6576	34.7	0.27563256146387
5	6595	34.8	-0.35195270327385
5	6614	34.9	-0.49645751344507
5	6633	35	0.40802203365601
5	6652	35.1	0.79327014642768
5	6671	35.2	-0.51355200435498
5	6690	35.3	-0.10349873777013
5	6709	35.4	-0.034008840098991
5	6728	35.5	-0.1887795163784
5	6747	35.6	0.52493534293024
5	6766	35.7	0.19335618473125
5	6785	35.8	-0.34295964764897
5	6804	35.9	-0.73284905939364
5	6823	36	1.0000572843012
5	6842	36.1	-0.93190897626336
5	6861	36.2	0.46823139735498
5	6880	36.3	0.11296289125454
5	6899	36.4	-0.55266899105625
5	6918	36.5	0.5504686960019
5	6937	36.6	-0.34523278351408
5	6956	36.7	0.42268500179055
5	6975	36.8	-0.65652478812265
5	6994	36.9	0.27822518709581
5	7013	37	-0.012476146570393
5	7032	37.1	0.48347215587274
5	7051	37.2	-0.55777572323567
5	7070	37.3	0.15693286666647
5	7089	37.4	0.51485301763748
5	7108	37.5	0.10332588669844
5	7127	37.6	-0.82660844807979
5	7146	37.7	-0.21160766659303
5	7165	37.8	0.651336111431
5	7184	37.9	-0.17269893966148
5	7203	38	-0.34676002454944
5	7222	38.1	0.52064894635695
5	7241	38.2	-0.64304632695858
5	7260	38.3	0.48896031277256
5	7279	38.4	-0.31852075126952
5	7298	38.5	-0.11449956924189
5	7317	38.6	0.12131585287861
5	7336	38.7	0.85294216896873
5	7355	38.8	-0.61032916822004
5	7374	38.9	0.29960343490821
5	7393	39	0.43643770238848
5	7412	39.1	-0.46971509335563
5	7431	39.2	0.21495264200496
5	7450	39.3	-0.76746051204392
5	7469	39.4	1.0604537831387
5	7488	39.5	-1.2033815236064
5	7507	39.6	0.78469803340269
5	7526	39.7	-0.0017394522903658
5	7545	39.8	0.44249190054835
5	7564	39.9	-0.2195749656763
5	7583	40	-0.28083532426972
4	21	0.2	22.271640761851
4	40	0.3	22.27916518694
4	59	0.4	22.294924876418
4	78	0.5	22.266033765038
4	97	0.6	22.293113662703
4	116	0.7	22.234069509772
4	135	0.8	22.224723840673
4	154	0.9	22.300152602228
4	173	1	22.247075745654
4	192	1.1	22.281243660201
4	211	1.2	22.276154206712
4	230	1.3	22.22967243768
4	249	1.4	22.340765312368
4	268	1.5	22.338673191394
4	287	1.6	22.347371608114
4	306	1.7	22.241759420431
4	325	1.8	22.248839621604
4	344	1.9	22.236898421117
4	363	2	22.222779615424
4	382	2.1	22.246109386701
4	401	2.2	22.290007682836
4	420	2.3	22.248531207165
4	439	2.4	22.334624324911
4	458	2.5	22.266810267791
4	477	2.6	22.331364072885
4	496	2.7	22.22719304058
4	515	2.8	22.282159717337
4	534	2.9	22.296093947655
4	553	3	22.315607770516
4	572	3.1	22.249349620754
4	591	3.2	22.290700456325
4	610	3.3	22.276103586718
4	629	3.4	22.347557326257
4	648	3.5	22.269707384889
4	667	3.6	22.27042755608
4	686	3.7	22.269798580175
4	705	3.8	22.227312750213
4	724	3.9	22.26136336128
4	743	4	22.303263972732
4	762	4.1	22.293185846154
4	781	4.2	22.259307944595
4	800	4.3	22.342170689355
4	819	4.4	22.263320327534
4	838	4.5	22.262817076419
4	857	4.6	22.322650266984
4	876	4.7	22.333239581215
4	895	4.8	22.308994314545
4	914	4.9	22.302717599457
4	933	5	22.275874419126
4	952	5.1	22.292981803259
4	971	5.2	22.22151140186
4	990	5.3	22.336734175114
4	1009	5.4	22.322846021384
4	1028	5.5	22.329029763548
4	1047	5.6	22.265095918132
4	1066	5.7	22.317072091829
4	1085	5.8	22.289379599534
4	1104	5.9	22.318224673553
4	1123	6	22.329333953757
4	1142	6.1	22.335651231909
4	1161	6.2	22.264677153041
4	1180	6.3	22.332036216564
4	1199	6.4	22.324444293629
4	1218	6.5	22.302065728456
4	1237	6.6	22.243270879982
4	1256	6.7	22.33737683475
4	1275	6.8	22.241067162133
4	1294	6.9	22.337507207855
4	1313	7	22.223060269521
4	1332	7.1	22.289075344219
4	1351	7.2	22.223021058196
4	1370	7.3	22.271370082658
4	1389	7.4	22.253895734425
4	1408	7.5	22.344905587435
4	1427	7.6	22.313235095269
4	1446	7.7	22.334374446603
4	1465	7.8	22.311501774092
4	1484	7.9	22.334565397142
4	1503	8	22.308662187471
4	1522	8.1	22.296145811512
4	1541	8.2	22.341660824867
4	1560	8.3	22.259978624485
4	1579	8.4	22.2763418117
4	1598	8.5	22.315499366156
4	1617	8.6	22.28197775312
4	1636	8.7	22.337787734221
4	1655	8.8	22.275126955628
4	1674	8.9	22.229191494281
4	1693	9	22.308586035857
4	1712	9.1	22.263236651088
4	1731	9.2	22.332866277939
4	1750	9.3	22.25687746428
4	1769	9.4	22.312377208173
4	1788	9.5	22.326185122749
4	1807	9.6	22.273753318707
4	1826	9.7	22.347386018429
4	1845	9.8	22.242237796318
4	1864	9.9	22.349389587329
4	1883	10	22.26188384989
4	1902	10.1	22.314898964076
4	1921	10.2	22.254424777343
4	1940	10.3	22.224915489161
4	1959	10.4	22.317662091833
4	1978	10.5	22.275099546334
4	1997	10.6	22.27303454956
4	2016	10.7	22.275607252805
4	2035	10.8	22.320999388015
4	2054	10.9	22.226142628798
4	2073	11	22.291873700791
4	2092	11.1	22.239966873406
4	2111	11.2	22.259067693928
4	2130	11.3	22.311333196284
4	2149	11.4	22.244206283444
4	2168	11.5	22.298454253951
4	2187	11.6	22.235456583891
4	2206	11.7	22.274434526134
4	2225	11.8	22.235374403258
4	2244	11.9	22.259970893103
4	2263	12	22.255716943415
4	2282	12.1	22.2848278302
4	2301	12.2	22.225709126832
4	2320	12.3	22.266281274452
4	2339	12.4	22.294898844287
4	2358	12.5	22.271168881806
4	2377	12.6	22.347504883918
4	2396	12.7	22.31079527389
4	2415	12.8	22.264177440011
4	2434	12.9	22.312289910708
4	2453	13	22.269657994502
4	2472	13.1	22.294260069183
4	2491	13.2	22.332388371085
4	2510	13.3	22.311223297382
4	2529	13.4	22.275904561498
4	2548	13.5	22.273186540816
4	2567	13.6	22.275337716744
4	2586	13.7	22.265083893994
4	2605	13.8	22.265226574333
4	2624	13.9	22.293915603517
4	2643	14	22.233448942222
4	2662	14.1	22.302216956685
4	2681	14.2	22.293337560487
4	2700	14.3	22.234049963434
4	2719	14.4	22.245194781066
4	2738	14.5	22.258494483877
4	2757	14.6	22.336970504746
4	2776	14.7	22.230467260312
4	2795	14.8	22.25714863121
4	2814	14.9	22.220149889628
4	2833	15	22.330571720393
4	2852	15.1	22.237143612124
4	2871	15.2	22.328875918924
4	2890	15.3	22.26997725623
4	2909	15.4	22.333903402288
4	2928	15.5	22.239758930451
4	2947	15.6	22.245048535159
4	2966	15.7	22.276016903238
4	2985	15.8	22.297066171302
4	3004	15.9	22.34100829127
4	3023	16	22.25933425958
4	3042	16.1	22.291039451568
4	3061	16.2	22.256132771331
4	3080	16.3	22.23737029762
4	3099	16.4	22.223182203427
4	3118	16.5	22.23874556541
4	3137	16.6	22.348477169403
4	3156	16.7	22.30320285232
4	3175	16.8	22.255101226976
4	3194	16.9	22.327688141922
4	3213	17	22.282265241607
4	3232	17.1	22.342936061814
4	3251	17.2	22.324000451695
4	3270	17.3	22.347592166765
4	3289	17.4	22.246819298679
4	3308	17.5	22.320889791248
4	3327	17.6	22.305104281788
4	3346	17.7	22.229349431954
4	3365	17.8	22.258426128086
4	3384	17.9	22.34586093989
4	3403	18	22.328589759655
4	3422	18.1	22.269207807127
4	3441	18.2	22.274960283916
4	3460	18.3	22.319073934061
4	3479	18.4	22.228552179772
4	3498	18.5	22.27018442617
4	3517	18.6	22.280367736353
4	3536	18.7	22.273311702893
4	3555	18.8	22.255084136582
4	3574	18.9	22.30944715058
4	3593	19	22.29823126124
4	3612	19.1	22.322720311971
4	3631	19.2	22.325794909296
4	3650	19.3	22.227231589491
4	3669	19.4	22.253858396446
4	3688	19.5	22.286240355759
4	3707	19.6	22.320436098205
4	3726	19.7	22.316933657241
4	3745	19.8	22.34245620888
4	3764	19.9	22.293525838242
4	3783	20	22.309466536012
4	3802	20.1	22.259475346855
4	3821	20.2	22.300892261157
4	3840	20.3	22.326651521928
4	3859	20.4	22.346791765259
4	3878	20.5	22.341257547995
4	3897	20.6	22.261678939152
4	3916	20.7	22.291019410864
4	3935	20.8	22.280244702871
4	3954	20.9	22.233432732264
4	3973	21	22.221255937021
4	3992	21.1	22.32180339247
4	4011	21.2	22.263799833537
4	4030	21.3	22.315768090854
4	4049	21.4	22.347315369383
4	4068	21.5	22.25141077525
4	4087	21.6	22.308397771178
4	4106	21.7	22.300149694141
4	4125	21.8	22.273518774735
4	4144	21.9	22.241963700505
4	4163	22	22.268232359637
4	4182	22.1	22.236555414519
4	4201	22.2	22.314439535674
4	4220	22.3	22.246253912055
4	4239	22.4	22.325867327384
4	4258	22.5	22.22613708443
4	4277	22.6	22.260626524538
4	4296	22.7	22.321984001892
4	4315	22.8	22.226841822702
4	4334	22.9	22.25498874567
4	4353	23	22.316987586101
4	4372	23.1	22.322269443264
4	4391	23.2	22.282633907525
4	4410	23.3	22.346663847251
4	4429	23.4	22.323028889766
4	4448	23.5	22.294790889528
4	4467	23.6	22.301357902789
4	4486	23.7	22.289735195041
4	4505	23.8	22.313908267908
4	4524	23.9	22.273718035107
4	4543	24	22.237698771833
4	4562	24.1	22.334720858531
4	4581	24.2	22.282740715551
4	4600	24.3	22.332831145739
4	4619	24.4	22.256808241613
4	4638	24.5	22.298512238509
4	4657	24.6	22.27649523
4	4676	24.7	22.326173620855
4	4695	24.8	22.33116979087
4	4714	24.9	22.286552683001
4	4733	25	22.303770344446
4	4752	25.1	22.227743846299
4	4771	25.2	22.250507717184
4	4790	25.3	22.252673728813
4	4809	25.4	22.232516433862
4	4828	25.5	22.339155083483
4	4847	25.6	22.278214978711
4	4866	25.7	22.274018110596
4	4885	25.8	22.224948270144
4	4904	25.9	22.312020821008
4	4923	26	22.318692258964
4	4942	26.1	22.336961787203
4	4961	26.2	22.347864147935
4	4980	26.3	22.229161188644
4	4999	26.4	22.262910849508
4	5018	26.5	22.247930121664
4	5037	26.6	22.313375086449
4	5056	26.7	22.273766677906
4	5075	26.8	22.341685815447
4	5094	26.9	22.286868412849
4	5113	27	22.222925632414
4	5132	27.1	22.236054318484
4	5151	27.2	22.306039335716
4	5170	27.3	22.224995879503
4	5189	27.4	22.319878788684
4	5208	27.5	22.226588553169
4	5227	27.6	22.227620898355
4	5246	27.7	22.246103663994
4	5265	27.8	22.268041768379
4	5284	27.9	22.236342563913
4	5303	28	22.311907363075
4	5322	28.1	22.239637337967
4	5341	28.2	22.269676030043
4	5360	28.3	22.348279208618
4	5379	28.4	22.304859643474
4	5398	28.5	22.330741688197
4	5417	28.6	22.222362179703
4	5436	28.7	22.287811860149
4	5455	28.8	22.285339122217
4	5474	28.9	22.266868572857
4	5493	29	22.302084001601
4	5512	29.1	22.332202964369
4	5531	29.2	22.243124694459
4	5550	29.3	22.325319771206
4	5569	29.4	22.283528532295
4	5588	29.5	22.32083878688
4	5607	29.6	22.337280216804
4	5626	29.7	22.237915103165
4	5645	29.8	22.223520466276
4	5664	29.9	22.225091494913
4	5683	30	22.232147785258
4	5702	30.1	22.24937384628
4	5721	30.2	22.306691129685
4	5740	30.3	22.339456818989
4	5759	30.4	22.297058648195
4	5778	30.5	22.319809561598
4	5797	30.6	22.332776607706
4	5816	30.7	22.343054466927
4	5835	30.8	22.255672732152
4	5854	30.9	22.348514430835
4	5873	31	22.249824502657
4	5892	31.1	22.33089693659
4	5911	31.2	22.33966212872
4	5930	31.3	22.338351605691
4	5949	31.4	22.262633785617
4	5968	31.5	22.318102262351
4	5987	31.6	22.295329869969
4	6006	31.7	22.27754205775
4	6025	31.8	22.238128347709
4	6044	31.9	22.255484245699
4	6063	32	22.314857372537
4	6082	32.1	22.332907236544
4	6101	32.2	22.342801338807
4	6120	32.3	22.310792177597
4	6139	32.4	22.315924640771
4	6158	32.5	22.290701726673
4	6177	32.6	22.261173426595
4	6196	32.7	22.259568691985
4	6215	32.8	22.313142549698
4	6234	32.9	22.300609496322
4	6253	33	22.326450374832
4	6272	33.1	22.247489083121
4	6291	33.2	22.342609750521
4	6310	33.3	22.259390358564
4	6329	33.4	22.24876959841
4	6348	33.5	22.248937017468
4	6367	33.6	22.316275066475
4	6386	33.7	22.301404291864
4	6405	33.8	22.273612047222
4	6424	33.9	22.314533153397
4	6443	34	22.301789135989
4	6462	34.1	22.324382943907
4	6481	34.2	22.290218735766
4	6500	34.3	22.344200401348
4	6519	34.4	22.246026535179
4	6538	34.5	22.339995662286
4	6557	34.6	22.282551430811
4	6576	34.7	22.310114686957
4	6595	34.8	22.27491941663
4	6614	34.9	22.225273665285
4	6633	35	22.266075868651
4	6652	35.1	22.345402883294
4	6671	35.2	22.294047682858
4	6690	35.3	22.283697809081
4	6709	35.4	22.280296925071
4	6728	35.5	22.261418973433
4	6747	35.6	22.313912507726
4	6766	35.7	22.333248126199
4	6785	35.8	22.298952161435
4	6804	35.9	22.225667255495
4	6823	36	22.325672983925
4	6842	36.1	22.232482086299
4	6861	36.2	22.279305226034
4	6880	36.3	22.29060151516
4	6899	36.4	22.235334616054
4	6918	36.5	22.290381485655
4	6937	36.6	22.255858207303
4	6956	36.7	22.298126707482
4	6975	36.8	22.23247422867
4	6994	36.9	22.260296747379
4	7013	37	22.259049132722
4	7032	37.1	22.30739634831
4	7051	37.2	22.251618775986
4	7070	37.3	22.267312062653
4	7089	37.4	22.318797364417
4	7108	37.5	22.329129953086
4	7127	37.6	22.246469108278
4	7146	37.7	22.225308341619
4	7165	37.8	22.290441952762
4	7184	37.9	22.273172058796
4	7203	38	22.238496056341
4	7222	38.1	22.290560950977
4	7241	38.2	22.226256318281
4	7260	38.3	22.275152349558
4	7279	38.4	22.243300274431
4	7298	38.5	22.231850317507
4	7317	38.6	22.243981902795
4	7336	38.7	22.329276119692
4	7355	38.8	22.26824320287
4	7374	38.9	22.298203546361
4	7393	39	22.341847316599
4	7412	39.1	22.294875807264
4	7431	39.2	22.316371071464
4	7450	39.3	22.23962502026
4	7469	39.4	22.345670398574
4	7488	39.5	22.225332246213
4	7507	39.6	22.303802049553
4	7526	39.7	22.303628104324
4	7545	39.8	22.347877294379
4	7564	39.9	22.325919797812
4	7583	40	22.297836265385
3	2	0.1	4126.0815160712
3	21	0.2	4126.0815160712
3	40	0.3	4124.5100623192
3	59	0.4	4122.9380776551
3	78	0.5	4121.3649810107
3	97	0.6	4119.7939228801
3	116	0.7	4118.2209540323
3	135	0.8	4116.6521512518
3	154	0.9	4115.0840078878
3	173	1	4113.510542383
3	192	1.1	4111.9408219019
3	211	1.2	4110.3686905838
3	230	1.3	4108.7969183699
3	249	1.4	4107.2284258403
3	268	1.5	4105.6520947631
3	287	1.6	4104.0759113029
3	306	1.7	4102.4991140954
3	325	1.8	4100.9297687263
3	344	1.9	4099.3599237888
3	363	2	4097.7909214046
3	382	2.1	4096.2229152223
3	401	2.2	4094.6532629261
3	420	2.3	4093.0805132315
3	439	2.4	4091.5106900553
3	458	2.5	4089.9347922771
3	477	2.6	4088.3636793576
3	496	2.7	4086.7880116179
3	515	2.8	4085.2196940308
3	534	2.9	4083.6474980771
3	553	3	4082.0743189448
3	572	3.1	4080.4605817229
3	591	3.2	4078.8279508209
3	610	3.3	4077.1922856437
3	629	3.4	4075.5576915674
3	648	3.5	4073.9178543005
3	667	3.6	4072.28372957
3	686	3.7	4070.6495519941
3	705	3.8	4069.0154205718
3	724	3.9	4067.3844067093
3	743	4	4065.7508942533
3	762	4.1	4064.1143071801
3	781	4.2	4062.478459628
3	800	4.3	4060.845097996
3	819	4.4	4059.2056559941
3	838	4.5	4057.5719999383
3	857	4.6	4055.9383808104
3	876	4.7	4054.3003711939
3	895	4.8	4052.6615845461
3	914	4.9	4051.0245769873
3	933	5	4049.3880300063
3	952	5.1	4047.7534527461
3	971	5.2	4046.1176201664
3	990	5.3	4044.4870319999
3	1009	5.4	4042.847988923
3	1028	5.5	4041.2099649423
3	1047	5.6	4039.5714872059
3	1066	5.7	4037.9377008594
3	1085	5.8	4036.3001005628
3	1104	5.9	4034.6645323084
3	1123	6	4033.0268474368
3	1142	6.1	4031.3883473793
3	1161	6.2	4029.7493837674
3	1180	6.3	4028.1156281494
3	1199	6.4	4026.4481382686
3	1218	6.5	4024.7377772063
3	1237	6.6	4023.0291306514
3	1256	6.7	4021.3249885948
3	1275	6.8	4019.613636721
3	1294	6.9	4017.9096634996
3	1313	7	4016.1983016375
3	1332	7.1	4014.495707993
3	1351	7.2	4012.7880566811
3	1370	7.3	4011.0854660408
3	1389	7.4	4009.3791711968
3	1408	7.5	4007.6742151294
3	1427	7.6	4005.9622864491
3	1446	7.7	4004.2527841663
3	1465	7.8	4002.541662317
3	1484	7.9	4000.8322928306
3	1503	8	3999.1211563518
3	1522	8.1	3997.412004417
3	1541	8.2	3995.7038114096
3	1560	8.3	3993.992131323
3	1579	8.4	3992.2867092221
3	1598	8.5	3990.5800334749
3	1617	8.6	3988.8703577177
3	1636	8.7	3987.1632501795
3	1655	8.8	3985.4518668251
3	1674	8.9	3983.7452841527
3	1693	9	3982.0422207716
3	1712	9.1	3980.3330746711
3	1731	9.2	3978.6274029604
3	1750	9.3	3976.9163966576
3	1769	9.4	3975.2112121485
3	1788	9.5	3973.5017755918
3	1807	9.6	3971.7912811578
3	1826	9.7	3970.084803725
3	1845	9.8	3968.3726850094
3	1864	9.9	3966.6686221012
3	1883	10	3964.9563498845
3	1902	10.1	3963.2507818171
3	1921	10.2	3961.541152059
3	1940	10.3	3959.8361554596
3	1959	10.4	3958.1334196796
3	1978	10.5	3956.4235782277
3	1997	10.6	3954.7169976552
3	2016	10.7	3953.01057529
3	2035	10.8	3951.3039558202
3	2054	10.9	3949.5938586853
3	2073	11	3947.8910288894
3	2092	11.1	3946.1831631848
3	2111	11.2	3944.4792742608
3	2130	11.3	3942.7739219498
3	2149	11.4	3941.0645653788
3	2168	11.5	3939.3603516573
3	2187	11.6	3937.6519817913
3	2206	11.7	3935.9484384178
3	2225	11.8	3934.241908795
3	2244	11.9	3932.5383717176
3	2263	12	3930.8329502091
3	2282	12.1	3929.127854612
3	2301	12.2	3927.4205287184
3	2320	12.3	3925.7177321349
3	2339	12.4	3924.0118271639
3	2358	12.5	3922.3037296914
3	2377	12.6	3920.5974502622
3	2396	12.7	3918.8853224398
3	2415	12.8	3917.1760070811
3	2434	12.9	3915.4702632929
3	2453	13	3913.7608334244
3	2472	13.1	3912.05466975
3	2491	13.2	3910.3466212165
3	2510	13.3	3908.635651528
3	2529	13.4	3906.9263033768
3	2548	13.5	3905.219661129
3	2567	13.6	3903.5132271192
3	2586	13.7	3901.8066282995
3	2605	13.8	3900.1008150644
3	2624	13.9	3898.3949908981
3	2643	14	3896.6869687555
3	2662	14.1	3894.983579195
3	2681	14.2	3893.274921054
3	2700	14.3	3891.5669431975
3	2719	14.4	3889.8635075905
3	2738	14.5	3888.1592181365
3	2757	14.6	3886.4539097413
3	2776	14.7	3884.742588998
3	2795	14.8	3883.0394278757
3	2814	14.9	3881.3342225914
3	2833	15	3879.6318519223
3	2852	15.1	3877.9210214144
3	2871	15.2	3876.2173487912
3	2890	15.3	3874.5066482051
3	2909	15.4	3872.8004600708
3	2928	15.5	3871.08937431
3	2947	15.6	3869.3855013172
3	2966	15.7	3867.6812230676
3	2985	15.8	3865.9745722129
3	3004	15.9	3864.2663086932
3	3023	16	3862.5546785997
3	3042	16.1	3860.8493058661
3	3061	16.2	3859.1415040765
3	3080	16.3	3857.4363766212
3	3099	16.4	3855.7326866307
3	3118	16.5	3854.0300836444
3	3137	16.6	3852.3262882894
3	3156	16.7	3850.6140859766
3	3175	16.8	3848.9053523023
3	3194	16.9	3847.2003038775
3	3213	17	3845.4896942916
3	3232	17.1	3843.7825647277
3	3251	17.2	3842.0707869403
3	3270	17.3	3840.3604598824
3	3289	17.4	3838.648325373
3	3308	17.5	3836.9439114584
3	3327	17.6	3835.2338227201
3	3346	17.7	3833.5249433701
3	3365	17.8	3831.8218678888
3	3384	17.9	3830.1165647307
3	3403	18	3828.4045628572
3	3422	18.1	3826.6938841948
3	3441	18.2	3824.987755011
3	3460	18.3	3823.2811851079
3	3479	18.4	3821.5712354894
3	3498	18.5	3819.8682210886
3	3517	18.6	3818.1620170823
3	3536	18.7	3816.4550328936
3	3555	18.8	3814.7485892946
3	3574	18.9	3813.0435421792
3	3593	19	3811.3343301054
3	3612	19.1	3809.6259773237
3	3631	19.2	3807.9157483422
3	3650	19.3	3806.2052838041
3	3669	19.4	3804.5023705788
3	3688	19.5	3802.797417372
3	3707	19.6	3801.0899832595
3	3726	19.7	3799.3799292804
3	3745	19.8	3797.6701436366
3	3764	19.9	3795.9584026126
3	3783	20	3794.2504103314
3	3802	20.1	3792.5411967723
3	3821	20.2	3790.8358132295
3	3840	20.3	3789.1272565785
3	3859	20.4	3787.4167264119
3	3878	20.5	3785.7046532243
3	3897	20.6	3783.9930040343
3	3916	20.7	3782.2874516658
3	3935	20.8	3780.5796514116
3	3954	20.9	3778.872676649
3	3973	21	3777.1692883305
3	3992	21.1	3775.4668329228
3	4011	21.2	3773.75667419
3	4030	21.3	3772.0509593317
3	4049	21.4	3770.3412629865
3	4068	21.5	3768.6291496836
3	4087	21.6	3766.9243839984
3	4106	21.7	3765.2152523215
3	4125	21.8	3763.5067525614
3	4144	21.9	3761.8002930979
3	4163	22	3760.0962511892
3	4182	22.1	3758.3901967382
3	4201	22.2	3756.686569179
3	4220	22.3	3754.9769746195
3	4239	22.4	3753.2726040213
3	4258	22.5	3751.5621339349
3	4277	22.6	3749.8593045639
3	4296	22.7	3748.153832825
3	4315	22.8	3746.443660255
3	4334	22.9	3744.7407768913
3	4353	23	3743.0357370841
3	4372	23.1	3741.3259473087
3	4391	23.2	3739.61575287
3	4410	23.3	3737.9085950612
3	4429	23.4	3736.1965316739
3	4448	23.5	3734.4862790511
3	4467	23.6	3732.7781898495
3	4486	23.7	3731.0695975238
3	4505	23.8	3729.3618956583
3	4524	23.9	3727.6523418012
3	4543	24	3725.9458670716
3	4562	24.1	3724.2421519154
3	4581	24.2	3722.5310035262
3	4600	24.3	3720.8238375345
3	4619	24.4	3719.1128339233
3	4638	24.5	3717.4076547176
3	4657	24.6	3715.6992804092
3	4676	24.7	3713.9925929081
3	4695	24.8	3712.2820993554
3	4714	24.9	3710.571223027
3	4733	25	3708.8637649858
3	4752	25.1	3707.1549878338
3	4771	25.2	3705.4520353626
3	4790	25.3	3703.7473388642
3	4809	25.4	3702.0424764194
3	4828	25.5	3700.339158302
3	4847	25.6	3698.6276701898
3	4866	25.7	3696.9208509321
3	4885	25.8	3695.2143532125
3	4904	25.9	3693.5116149211
3	4923	26	3691.8022056685
3	4942	26.1	3690.0922852916
3	4961	26.2	3688.3809652162
3	4980	26.3	3686.6688098692
3	4999	26.4	3684.96574881
3	5018	26.5	3683.2601020602
3	5037	26.6	3681.5556030412
3	5056	26.7	3679.8460900332
3	5075	26.8	3678.1396115768
3	5094	26.9	3676.4279295756
3	5113	27	3674.7204473452
3	5132	27.1	3673.0178640158
3	5151	27.2	3671.3142748475
3	5170	27.3	3669.6053238594
3	5189	27.4	3667.9025819205
3	5208	27.5	3666.1925706389
3	5227	27.6	3664.4897066791
3	5246	27.7	3662.7867636275
3	5265	27.8	3661.0824045404
3	5284	27.9	3659.3763646912
3	5303	28	3657.6727534394
3	5322	28.1	3655.9633528793
3	5341	28.2	3654.2594892022
3	5360	28.3	3652.553324146
3	5379	28.4	3650.8411369997
3	5398	28.5	3649.1322763923
3	5417	28.6	3647.4214328625
3	5436	28.7	3645.7188927014
3	5455	28.8	3644.0113381899
3	5474	28.9	3642.3039731243
3	5493	29	3640.5980231581
3	5512	29.1	3638.8893752033
3	5531	29.2	3637.1784197195
3	5550	29.3	3635.4742888627
3	5569	29.4	3633.7638607267
3	5588	29.5	3632.0566343774
3	5607	29.6	3630.3465495467
3	5626	29.7	3628.6352050752
3	5645	29.8	3626.9314733451
3	5664	29.9	3625.2288444432
3	5683	30	3623.5260951788
3	5702	30.1	3621.822805305
3	5721	30.2	3620.1181956767
3	5740	30.3	3618.4091947522
3	5759	30.4	3616.6976835229
3	5778	30.5	3614.9894205796
3	5797	30.6	3613.2794146018
3	5816	30.7	3611.568415169
3	5835	30.8	3609.8566283102
3	5854	30.9	3608.1515361002
3	5873	31	3606.4393309326
3	5892	31.1	3604.7346867779
3	5911	31.2	3603.0238313539
3	5930	31.3	3601.312304395
3	5949	31.4	3599.6008778403
3	5968	31.5	3597.8952523174
3	5987	31.6	3596.1853771423
3	6006	31.7	3594.4772466474
3	6025	31.8	3592.7704789447
3	6044	31.9	3591.0667308771
3	6063	32	3589.3616531078
3	6082	32.1	3587.6520265362
3	6101	32.2	3585.9410170955
3	6120	32.3	3584.2292496297
3	6139	32.4	3582.5199345082
3	6158	32.5	3580.8102261691
3	6177	32.6	3579.1024502538
3	6196	32.7	3577.3969366146
3	6215	32.8	3575.6915459203
3	6234	32.9	3573.9820507278
3	6253	33	3572.2735157404
3	6272	33.1	3570.5630009845
3	6291	33.2	3568.8585357552
3	6310	33.3	3567.1467829678
3	6329	33.4	3565.4414059362
3	6348	33.5	3563.7368426017
3	6367	33.6	3562.0322664406
3	6386	33.7	3560.322531254
3	6405	33.8	3558.6139353744
3	6424	33.9	3556.9074687649
3	6443	34	3555.1978670329
3	6462	34.1	3553.4892416688
3	6481	34.2	3551.7788853068
3	6500	34.3	3550.0711463953
3	6519	34.4	3548.359271742
3	6538	34.5	3546.6549185641
3	6557	34.6	3544.9433660519
3	6576	34.7	3543.2362145621
3	6595	34.8	3541.5269513457
3	6614	34.9	3539.8203845736
3	6633	35	3538.1176213524
3	6652	35.1	3536.4117321184
3	6671	35.2	3534.6997653383
3	6690	35.3	3532.9917330766
3	6709	35.4	3531.2844937583
3	6728	35.5	3529.5775149948
3	6747	35.6	3527.8719825433
3	6766	35.7	3526.1624283613
3	6785	35.8	3524.4513928037
3	6804	35.9	3522.7429847912
3	6823	36	3521.0401914155
3	6842	36.1	3519.3297362185
3	6861	36.2	3517.6264207326
3	6880	36.3	3515.9195179469
3	6899	36.4	3514.2117497093
3	6918	36.5	3512.5082156802
3	6937	36.6	3510.8004642999
3	6956	36.7	3509.0953578799
3	6975	36.8	3507.3870131085
3	6994	36.9	3505.6836982246
3	7013	37	3503.9782517512
3	7032	37.1	3502.2729008622
3	7051	37.2	3500.5638459082
3	7070	37.3	3498.8590642873
3	7089	37.4	3497.1530803437
3	7108	37.5	3495.4431519143
3	7127	37.6	3493.7324318656
3	7146	37.7	3492.0280447805
3	7165	37.8	3490.3252789026
3	7184	37.9	3488.6175228897
3	7203	38	3486.9110899894
3	7222	38.1	3485.2073137502
3	7241	38.2	3483.4995486204
3	7260	38.3	3481.7967101144
3	7279	38.4	3480.0901254964
3	7298	38.5	3478.3859811877
3	7317	38.6	3476.6827141041
3	7336	38.7	3474.9785175733
3	7355	38.8	3473.2677863263
3	7374	38.9	3471.5617310445
3	7393	39	3469.8533803861
3	7412	39.1	3468.1416860117
3	7431	39.2	3466.4335903042
3	7450	39.3	3464.7238477623
3	7469	39.4	3463.0199850289
3	7488	39.5	3461.3079977535
3	7507	39.6	3459.6052300442
3	7526	39.7	3457.8964504631
3	7545	39.8	3456.1876842087
3	7564	39.9	3454.4755278545
3	7583	40	3452.7650537482
2	2	0.1	23.952668823968
2	21	0.2	23.952668823968
2	40	0.3	25.530317103164
2	59	0.4	27.108498387378
2	78	0.5	28.687796035098
2	97	0.6	30.265047133459
2	116	0.7	31.844216480879
2	135	0.8	33.419203338681
2	154	0.9	34.993528180652
2	173	1	36.573196142922
2	192	1.1	38.14910431882
2	211	1.2	39.727432835104
2	230	1.3	41.305400831584
2	249	1.4	42.880076215557
2	268	1.5	44.462621045902
2	287	1.6	46.045017677419
2	306	1.7	47.628030475581
2	325	1.8	49.203562060844
2	344	1.9	50.779595183794
2	363	2	52.354782432181
2	382	2.1	53.92896955176
2	401	2.2	55.504809274033
2	420	2.3	57.083758604265
2	439	2.4	58.659769880171
2	458	2.5	60.241879703576
2	477	2.6	61.819185806785
2	496	2.7	63.401064684879
2	515	2.8	64.975564436684
2	534	2.9	66.55395784338
2	553	3	68.133338304183
2	572	3.1	69.67345426569
2	591	3.2	71.184426379163
2	610	3.3	72.698206662783
2	629	3.4	74.210995660667
2	648	3.5	75.728637142318
2	667	3.6	77.240991768737
2	686	3.7	78.753395302589
2	705	3.8	80.265756122157
2	724	3.9	81.775231693149
2	743	4	83.287019669882
2	762	4.1	84.801653152506
2	781	4.2	86.315602221048
2	800	4.3	87.827250612698
2	819	4.4	89.34452628329
2	838	4.5	90.856447159252
2	857	4.6	92.368333859007
2	876	4.7	93.884283881238
2	895	4.8	95.400953032737
2	914	4.9	96.915975667711
2	933	5	98.430572045665
2	952	5.1	99.943345480585
2	971	5.2	101.4572806924
2	990	5.3	102.96636228893
2	1009	5.4	104.48326876125
2	1028	5.5	105.99923207733
2	1047	5.6	107.51561533656
2	1066	5.7	109.02765679438
2	1085	5.8	110.54322799802
2	1104	5.9	112.05691858114
2	1123	6	113.57256805759
2	1142	6.1	115.08897197463
2	1161	6.2	116.60580490336
2	1180	6.3	118.11781792249
2	1199	6.4	119.60172641316
2	1218	6.5	121.03582741974
2	1237	6.6	122.46849084865
2	1256	6.7	123.89737735257
2	1275	6.8	125.33230913326
2	1294	6.9	126.76105407244
2	1313	7	128.19599422818
2	1332	7.1	129.62358242176
2	1351	7.2	131.05541136077
2	1370	7.3	132.48299703546
2	1389	7.4	133.91368860535
2	1408	7.5	135.34325763979
2	1427	7.6	136.77867306037
2	1446	7.7	138.21205399874
2	1465	7.8	139.64679290888
2	1484	7.9	141.08006250035
2	1503	8	142.51481367697
2	1522	8.1	143.94790085611
2	1541	8.2	145.3801839952
2	1560	8.3	146.81539097532
2	1579	8.4	148.24535076881
2	1598	8.5	149.67636171784
2	1617	8.6	151.10988811082
2	1636	8.7	152.54126110735
2	1655	8.8	153.97621928382
2	1674	8.9	155.40715219166
2	1693	9	156.83513424927
2	1712	9.1	158.2682165365
2	1731	9.2	159.69838562251
2	1750	9.3	161.13302764933
2	1769	9.4	162.56278822725
2	1788	9.5	163.99611405578
2	1807	9.6	165.43032689156
2	1826	9.7	166.86117155827
2	1845	9.8	168.29674631937
2	1864	9.9	169.72556645898
2	1883	10	171.16126992744
2	1902	10.1	172.59135211079
2	1921	10.2	174.02483993451
2	1940	10.3	175.45444295415
2	1959	10.4	176.88215032528
2	1978	10.5	178.31581564969
2	1997	10.6	179.74674679677
2	2016	10.7	181.17754529044
2	2035	10.8	182.6085090521
2	2054	10.9	184.04238876123
2	2073	11	185.47017496264
2	2092	11.1	186.9021836654
2	2111	11.2	188.33085792309
2	2130	11.3	189.76075919927
2	2149	11.4	191.19401796147
2	2168	11.5	192.62296455482
2	2187	11.6	194.05539598604
2	2206	11.7	195.48378050704
2	2225	11.8	196.91466893386
2	2244	11.9	198.34304817565
2	2263	12	199.77300747248
2	2282	12.1	201.20269349964
2	2301	12.2	202.63424958241
2	2320	12.3	204.06200793606
2	2339	12.4	205.49237260577
2	2358	12.5	206.92457564087
2	2377	12.6	208.35525428581
2	2396	12.7	209.79083668272
2	2415	12.8	211.2240608893
2	2434	12.9	212.65429041069
2	2453	13	214.08761063131
2	2472	13.1	215.5181922183
2	2491	13.2	216.95035421909
2	2510	13.3	218.38496554563
2	2529	13.4	219.81821724803
2	2548	13.5	221.24920010852
2	2567	13.6	222.68000836596
2	2586	13.7	224.11095481288
2	2605	13.8	225.54124256402
2	2624	13.9	226.9715394808
2	2643	14	228.40367935345
2	2662	14.1	229.83193490546
2	2681	14.2	231.26460804912
2	2700	14.3	232.69671078884
2	2719	14.4	234.12500494988
2	2738	14.5	235.55401504337
2	2757	14.6	236.98387949708
2	2776	14.7	238.41878517552
2	2795	14.8	239.84684918712
2	2814	14.9	241.27662718454
2	2833	15	242.7040284181
2	2852	15.1	244.13852304473
2	2871	15.2	245.56701593881
2	2890	15.3	247.00140162878
2	2909	15.4	248.43200372483
2	2928	15.5	249.86671237553
2	2947	15.6	251.29537327516
2	2966	15.7	252.72437397396
2	2985	15.8	254.15536405118
2	3004	15.9	255.5877063133
2	3023	16	257.02287137529
2	3042	16.1	258.45278977539
2	3061	16.2	259.88474488679
2	3080	16.3	261.31445762634
2	3099	16.4	262.74296508248
2	3118	16.5	264.17056110898
2	3137	16.6	265.59915691101
2	3156	16.7	267.0348017666
2	3175	16.8	268.46753824326
2	3194	16.9	269.89718471739
2	3213	17	271.33149410569
2	3232	17.1	272.7628855702
2	3251	17.2	274.19817447034
2	3270	17.3	275.63224696494
2	3289	17.4	277.06783496881
2	3308	17.5	278.49694941976
2	3327	17.6	279.93082208851
2	3346	17.7	281.36368071118
2	3365	17.8	282.79167291455
2	3384	17.9	284.22153297716
2	3403	18	285.65700976867
2	3422	18.1	287.09137707603
2	3441	18.2	288.52192974341
2	3460	18.3	289.95285194441
2	3479	18.4	291.38660796422
2	3498	18.5	292.81454895288
2	3517	18.6	294.24516435734
2	3536	18.7	295.67643392792
2	3555	18.8	297.10725022565
2	3574	18.9	298.53689560191
2	3593	19	299.97003320633
2	3612	19.1	301.40245031271
2	3631	19.2	302.83644057236
2	3650	19.3	304.27062834121
2	3669	19.4	305.6984844964
2	3688	19.5	307.12805113228
2	3707	19.6	308.55969795434
2	3726	19.7	309.99354147827
2	3745	19.8	311.42716000874
2	3764	19.9	312.86241808358
2	3783	20	314.29453291808
2	3802	20.1	315.7276717678
2	3821	20.2	317.15759923121
2	3840	20.3	318.5901872777
2	3859	20.4	320.02443007452
2	3878	20.5	321.45996666137
2	3897	20.6	322.89514773537
2	3916	20.7	324.32521675545
2	3935	20.8	325.75717057945
2	3954	20.9	327.18843224649
2	3973	21	328.61668675718
2	3992	21.1	330.04415904217
2	4011	21.2	331.47809039978
2	4030	21.3	332.90829566409
2	4049	21.4	334.34183931969
2	4068	21.5	335.77740954236
2	4087	21.6	337.20681894539
2	4106	21.7	338.63988913868
2	4125	21.8	340.07242948336
2	4144	21.9	341.50325908319
2	4163	22	342.93206161515
2	4182	22.1	344.36255162071
2	4201	22.2	345.79100672953
2	4220	22.3	347.22446504001
2	4239	22.4	348.65354317106
2	4258	22.5	350.08773559198
2	4277	22.6	351.51552143722
2	4296	22.7	352.94552285119
2	4315	22.8	354.37946581098
2	4334	22.9	355.80729692793
2	4353	23	357.23693617636
2	4372	23.1	358.67055817117
2	4391	23.2	360.10451946744
2	4410	23.3	361.5359346147
2	4429	23.4	362.97146298421
2	4448	23.5	364.4054730666
2	4467	23.6	365.83766916679
2	4486	23.7	367.27028712565
2	4505	23.8	368.70215845285
2	4524	23.9	370.13558263519
2	4543	24	371.56642503531
2	4562	24.1	372.99495359232
2	4581	24.2	374.42971475563
2	4600	24.3	375.86113676414
2	4619	24.4	377.2957765341
2	4638	24.5	378.72553266522
2	4657	24.6	380.15796782132
2	4676	24.7	381.58898862579
2	4695	24.8	383.02320072271
2	4714	24.9	384.45773376882
2	4733	25	385.88940065448
2	4752	25.1	387.32217358629
2	4771	25.2	388.75006264837
2	4790	25.3	390.17941403981
2	4809	25.4	391.60890457377
2	4828	25.5	393.03710022233
2	4847	25.6	394.47214623603
2	4866	25.7	395.90327751552
2	4885	25.8	397.3341391922
2	4904	25.9	398.76184866914
2	4923	26	400.1951516037
2	4942	26.1	401.62888310506
2	4961	26.2	403.06378822349
2	4980	26.3	404.49939369917
2	4999	26.4	405.92737380998
2	5018	26.5	407.35752196681
2	5037	26.6	408.78670777597
2	5056	26.7	410.22009770725
2	5075	26.8	411.65094323213
2	5094	26.9	413.08615181763
2	5113	27	414.51783898548
2	5132	27.1	415.9454185301
2	5151	27.2	417.373841449
2	5170	27.3	418.80676013864
2	5189	27.4	420.23447267396
2	5208	27.5	421.66828039686
2	5227	27.6	423.09609524402
2	5246	27.7	424.52397640805
2	5265	27.8	425.95304488731
2	5284	27.9	427.38352264947
2	5303	28	428.81196408498
2	5322	28.1	430.2452597311
2	5341	28.2	431.67391281975
2	5360	28.3	433.10449556532
2	5379	28.4	434.54012770411
2	5398	28.5	435.97297061145
2	5417	28.6	437.40747615665
2	5436	28.7	438.83501950561
2	5455	28.8	440.26676727961
2	5474	28.9	441.69835620728
2	5493	29	443.12875860449
2	5512	29.1	444.56142320724
2	5531	29.2	445.99602262343
2	5550	29.3	447.42489973653
2	5569	29.4	448.85905698296
2	5588	29.5	450.29052960006
2	5607	29.6	451.72439899233
2	5626	29.7	453.15932456638
2	5645	29.8	454.5878670203
2	5664	29.9	456.01548477649
2	5683	30	457.44320345405
2	5702	30.1	458.87137542098
2	5721	30.2	460.30065397363
2	5740	30.3	461.73361453389
2	5759	30.4	463.16867993079
2	5778	30.5	464.60102170963
2	5797	30.6	466.03482498545
2	5816	30.7	467.46946125194
2	5835	30.8	468.90475775831
2	5854	30.9	470.33444094538
2	5873	31	471.77008819462
2	5892	31.1	473.19939569701
2	5911	31.2	474.63391121522
2	5930	31.3	476.06898980101
2	5949	31.4	477.50398420006
2	5968	31.5	478.93411455856
2	5987	31.6	480.36780815911
2	6006	31.7	481.80003888289
2	6025	31.8	483.23112693458
2	6044	31.9	484.65968308713
2	6063	32	486.08935416601
2	6082	32.1	487.52283931793
2	6101	32.2	488.95748397589
2	6120	32.3	490.39276422155
2	6139	32.4	491.82598822922
2	6158	32.5	493.25954194143
2	6177	32.6	494.6914753577
2	6196	32.7	496.12151190414
2	6215	32.8	497.55144536396
2	6234	32.9	498.98482035729
2	6253	33	500.41739023923
2	6272	33.1	501.85162011456
2	6291	33.2	503.28077759182
2	6310	33.3	504.71604553003
2	6329	33.4	506.14596753388
2	6348	33.5	507.57520727022
2	6367	33.6	509.00445776141
2	6386	33.7	510.43803398464
2	6405	33.8	511.87065492348
2	6424	33.9	513.30149051504
2	6443	34	514.73495483943
2	6462	34.1	516.1676005003
2	6481	34.2	517.60169756584
2	6500	34.3	519.03359995523
2	6519	34.4	520.46897007533
2	6538	34.5	521.89803359991
2	6557	34.6	523.33313361158
2	6576	34.7	524.76454346062
2	6595	34.8	526.19772394694
2	6614	34.9	527.62864352266
2	6633	35	529.05637390268
2	6652	35.1	530.48672537732
2	6671	35.2	531.92217274371
2	6690	35.3	533.35432110101
2	6709	35.4	534.78580459229
2	6728	35.5	536.21706961403
2	6747	35.6	537.64712193417
2	6766	35.7	539.08054638887
2	6785	35.8	540.51521294526
2	6804	35.9	541.94767636159
2	6823	36	543.37543202546
2	6842	36.1	544.80961196194
2	6861	36.2	546.23780540404
2	6880	36.3	547.66900671998
2	6899	36.4	549.10093369876
2	6918	36.5	550.52931038465
2	6937	36.6	551.96122322894
2	6956	36.7	553.39091833077
2	6975	36.8	554.82332872072
2	6994	36.9	556.25152165806
2	7013	37	557.68150188746
2	7032	37.1	559.11140197128
2	7051	37.2	560.54440783412
2	7070	37.3	561.97383059892
2	7089	37.4	563.40426148548
2	7108	37.5	564.83799973872
2	7127	37.6	566.2724017476
2	7146	37.7	567.70149370265
2	7165	37.8	569.12922631024
2	7184	37.9	570.56114303888
2	7203	38	571.99195036601
2	7222	38.1	573.42053013981
2	7241	38.2	574.85245451278
2	7260	38.3	576.28024801749
2	7279	38.4	577.7111825566
2	7298	38.5	579.1400709488
2	7317	38.6	580.56822380668
2	7336	38.7	581.99715598603
2	7355	38.8	583.43156738451
2	7374	38.9	584.86205808663
2	7393	39	586.29447341264
2	7412	39.1	587.72969237282
2	7431	39.2	589.16189392804
2	7450	39.3	590.59547631853
2	7469	39.4	592.0241286159
2	7488	39.5	593.45959316722
2	7507	39.6	594.88732731042
2	7526	39.7	596.32010227893
2	7545	39.8	597.75286607337
2	7564	39.9	599.18847239357
2	7583	40	600.62266818514
13	40	0.3	3.2735383929732
13	59	0.4	4.7650598595354
13	78	0.5	4.881268194335
13	97	0.6	3.8193739558479
13	116	0.7	4.9038743326598
13	135	0.8	1.7032109638749
13	154	0.9	1.7764084432707
13	173	1	0.86865680797258
13	192	1.1	5.5274841386044
13	211	1.2	3.8191445751896
13	230	1.3	0.973
13	249	1.4	6.6963861033567
13	268	1.5	1.0358997581549
13	287	1.6	5.1665350400779
13	306	1.7	0.973
13	325	1.8	8.9309115459364
13	344	1.9	0.973
13	363	2	5.976642720858
13	382	2.1	0.9189623987759
13	401	2.2	5.1646300581051
13	420	2.3	2.0982935809594
13	439	2.4	2.9109376666709
13	458	2.5	4.1727399040596
13	477	2.6	3.5181508477598
13	496	2.7	1.6588024914049
13	515	2.8	7.7845556175066
13	534	2.9	0.64045595036862
13	553	3	5.2243380695007
13	572	3.1	0.973
13	591	3.2	6.8534203905391
13	610	3.3	3.7852933276661
13	629	3.4	1.8912651926892
13	648	3.5	4.4364749971929
13	667	3.6	2.7060903473935
13	686	3.7	2.0631893293043
13	705	3.8	0.973
13	724	3.9	6.3698788007148
13	743	4	2.0665843806461
13	762	4.1	1.1826826865406
13	781	4.2	8.8371450404628
13	800	4.3	0.973
13	819	4.4	5.4126797767226
13	838	4.5	6.5887113059782
13	857	4.6	1.902444950581
13	876	4.7	0.46473211071609
13	895	4.8	4.2015738394599
13	914	4.9	5.1880129749868
13	933	5	5.2251301308733
13	952	5.1	0.973
13	971	5.2	0.93555872176058
13	990	5.3	5.3393778603352
13	1009	5.4	3.3278441866686
13	1028	5.5	0.68756790757573
13	1047	5.6	6.090706197483
13	1066	5.7	4.3793975393431
13	1085	5.8	2.7867437051397
13	1104	5.9	2.1661767928148
13	1123	6	5.2065521258648
13	1142	6.1	0.85446701580501
13	1161	6.2	5.7108658299671
13	1180	6.3	0.973
13	1199	6.4	2.0042193048183
13	1218	6.5	5.2056908239788
13	1237	6.6	7.7629740305455
13	1256	6.7	0.973
13	1275	6.8	2.848796104547
13	1294	6.9	1.1191615827826
13	1313	7	3.8513996291957
13	1332	7.1	5.7803363623978
13	1351	7.2	6.3955216572991
13	1370	7.3	0.44684773932484
13	1389	7.4	6.2378491640386
13	1408	7.5	0.26338638302294
13	1427	7.6	0.973
13	1446	7.7	7.544118149553
13	1465	7.8	2.3598274254592
13	1484	7.9	1.7538348380639
13	1503	8	1.8619689936229
13	1522	8.1	2.9343265392184
13	1541	8.2	8.1195361307676
13	1560	8.3	0.77449613277612
13	1579	8.4	1.1090913057333
13	1598	8.5	5.69354332363
13	1617	8.6	0.35737993914238
13	1636	8.7	3.1663600192244
13	1655	8.8	9.0828646767002
13	1674	8.9	1.8523003836855
13	1693	9	5.0983209691097
13	1712	9.1	0.973
13	1731	9.2	4.5653216535034
13	1750	9.3	1.845901014807
13	1769	9.4	7.2447694451687
13	1788	9.5	2.2800966083242
13	1807	9.6	2.1242635787615
13	1826	9.7	5.9289483032467
13	1845	9.8	1.7791022286362
13	1864	9.9	4.7786962846692
13	1883	10	0.25234954386603
13	1902	10.1	2.2671952766981
13	1921	10.2	6.1154034043347
13	1940	10.3	2.1975643358854
13	1959	10.4	0.95070575873289
13	1978	10.5	5.7249788594829
13	1997	10.6	0.973
13	2016	10.7	4.9977596233558
13	2035	10.8	1.4381295423758
13	2054	10.9	4.6781677902841
13	2073	11	4.8209339732511
13	2092	11.1	0.973
13	2111	11.2	9.2511398747869
13	2130	11.3	0.973
13	2149	11.4	5.6908039150307
13	2168	11.5	1.3644934630675
13	2187	11.6	6.1895855779304
13	2206	11.7	2.7686328873002
13	2225	11.8	0.973
13	2244	11.9	5.8357408734343
13	2263	12	2.7068780324116
13	2282	12.1	4.0893759869917
13	2301	12.2	5.3304763325748
13	2320	12.3	2.0618642724813
13	2339	12.4	1.6420991480892
13	2358	12.5	4.2131395779638
13	2377	12.6	3.2411934477059
13	2396	12.7	1.487209988754
13	2415	12.8	6.2050606453047
13	2434	12.9	2.5431989010332
13	2453	13	0.65177088155417
13	2472	13.1	2.2976320836335
13	2491	13.2	8.6446383615785
13	2510	13.3	3.2906817825832
13	2529	13.4	1.3824070518738
13	2548	13.5	1.8257642875422
13	2567	13.6	6.8464931927887
13	2586	13.7	0.973
13	2605	13.8	7.7404743567219
13	2624	13.9	3.911615691858
13	2643	14	3.7757975981103
13	2662	14.1	3.525105552967
13	2681	14.2	0.973
13	2700	14.3	8.2730686557163
13	2719	14.4	1.2751665146619
13	2738	14.5	3.8309127522174
13	2757	14.6	5.6549692698137
13	2776	14.7	1.4448339476791
13	2795	14.8	2.3915560954312
13	2814	14.9	0.60783857515618
13	2833	15	2.7552871937872
13	2852	15.1	9.2888481350792
13	2871	15.2	0.973
13	2890	15.3	5.6041910629516
13	2909	15.4	0.973
13	2928	15.5	2.6002560511545
13	2947	15.6	6.377725428204
13	2966	15.7	5.1151509942835
13	2985	15.8	3.9660536376312
13	3004	15.9	0.973
13	3023	16	7.4675676598602
13	3042	16.1	2.8825388699979
13	3061	16.2	5.8047673919245
13	3080	16.3	1.010278049988
13	3099	16.4	5.6617359501143
13	3118	16.5	1.7166468422953
13	3137	16.6	0.973
13	3156	16.7	1.9486977538515
13	3175	16.8	4.5547478122717
13	3194	16.9	6.0807055615971
13	3213	17	2.1592961140891
13	3232	17.1	4.2635052138693
13	3251	17.2	4.3308172477979
13	3270	17.3	3.2748513644569
13	3289	17.4	1.1658979323979
13	3308	17.5	0.33423138759305
13	3327	17.6	2.7123833934435
13	3346	17.7	5.548294735848
13	3365	17.8	3.2859962702362
13	3384	17.9	1.8971835320705
13	3403	18	5.1875928713988
13	3422	18.1	6.3659751366217
13	3441	18.2	0.973
13	3460	18.3	1.1536369469308
13	3479	18.4	8.2827125664774
13	3498	18.5	0.33074558756741
13	3517	18.6	1.9083814759054
13	3536	18.7	3.9921967681169
13	3555	18.8	1.7085953506461
13	3574	18.9	6.06948953662
13	3593	19	5.6051397990143
13	3612	19.1	3.1438184146218
13	3631	19.2	3.2400409375342
13	3650	19.3	0.75730190436503
13	3669	19.4	4.0289151090703
13	3688	19.5	0.973
13	3707	19.6	5.2235126815753
13	3726	19.7	7.3834612034023
13	3745	19.8	3.4202826743737
13	3764	19.9	0.973
13	3783	20	0.45926632725825
13	3802	20.1	2.5316963600565
13	3821	20.2	5.7075721784659
13	3840	20.3	3.7310003916824
13	3859	20.4	1.0242052653379
13	3878	20.5	3.9738656231821
13	3897	20.6	5.0600169438847
13	3916	20.7	1.8187579631732
13	3935	20.8	3.6935008718013
13	3954	20.9	2.4515490903706
13	3973	21	4.9204038533799
13	3992	21.1	3.3026252864121
13	4011	21.2	0.973
13	4030	21.3	8.5980033126776
13	4049	21.4	2.5706140535
13	4068	21.5	0.973
13	4087	21.6	3.038561915327
13	4106	21.7	5.0081469592957
13	4125	21.8	5.4558329880458
13	4144	21.9	1.8454189605556
13	4163	22	6.8582723073178
13	4182	22.1	1.0325773517667
13	4201	22.2	2.4157791994822
13	4220	22.3	0.973
13	4239	22.4	4.6360426652669
13	4258	22.5	4.7710601395265
13	4277	22.6	3.0173288984825
13	4296	22.7	1.072240566988
13	4315	22.8	7.1250673092341
13	4334	22.9	0.973
13	4353	23	7.1721847324763
13	4372	23.1	0.973
13	4391	23.2	6.5997449717449
13	4410	23.3	1.5298807061029
13	4429	23.4	7.118777124559
13	4448	23.5	0.973
13	4467	23.6	3.7910906410741
13	4486	23.7	6.2311854791723
13	4505	23.8	3.4137966681145
13	4524	23.9	0.973
13	4543	24	3.6232414926483
13	4562	24.1	3.7069850041196
13	4581	24.2	5.9948850748204
13	4600	24.3	3.9286682482514
13	4619	24.4	0.973
13	4638	24.5	4.8935552578797
13	4657	24.6	0.57030553621251
13	4676	24.7	7.6596143283461
13	4695	24.8	3.4946818528987
13	4714	24.9	3.4972514471537
13	4733	25	0.973
13	4752	25.1	8.0608688197852
13	4771	25.2	0.973
13	4790	25.3	7.7970601474668
13	4809	25.4	2.3410838709962
13	4828	25.5	0.973
13	4847	25.6	3.324252292177
13	4866	25.7	8.0212316931106
13	4885	25.8	2.0706685312002
13	4904	25.9	2.6689850931999
13	4923	26	0.48057371601648
13	4942	26.1	7.5173658770469
13	4961	26.2	0.973
13	4980	26.3	7.0451785645931
13	4999	26.4	0.973
13	5018	26.5	2.1424105956249
13	5037	26.6	5.1609206824788
13	5056	26.7	6.8654690458307
13	5075	26.8	0.89792593842387
13	5094	26.9	2.7305408552895
13	5113	27	1.7569755335281
13	5132	27.1	4.4682352792596
13	5151	27.2	5.9281482909151
13	5170	27.3	1.554981403467
13	5189	27.4	0.973
13	5208	27.5	5.9069222186113
13	5227	27.6	1.6451542332104
13	5246	27.7	4.8095248870172
13	5265	27.8	1.6515657977551
13	5284	27.9	4.6765102472056
13	5303	28	0.78535680333509
13	5322	28.1	7.7625743785911
13	5341	28.2	0.973
13	5360	28.3	1.796959534681
13	5379	28.4	3.978626280475
13	5398	28.5	3.7714002959614
13	5417	28.6	1.7712166822768
13	5436	28.7	4.8149405215091
13	5455	28.8	8.4676309544703
13	5474	28.9	1.3572754210545
13	5493	29	2.2245186187822
13	5512	29.1	3.0852866785699
13	5531	29.2	4.1236798059326
13	5550	29.3	2.4882152782677
13	5569	29.4	5.1791671031992
13	5588	29.5	0.973
13	5607	29.6	7.2235196061271
13	5626	29.7	2.06751377856
13	5645	29.8	4.787774138901
13	5664	29.9	0.973
13	5683	30	5.8465755059942
13	5702	30.1	3.5748689449658
13	5721	30.2	2.928805145444
13	5740	30.3	3.8948927212738
13	5759	30.4	0.973
13	5778	30.5	2.1455280035194
13	5797	30.6	7.4113402872365
13	5816	30.7	0.973
13	5835	30.8	9.7932134022827
13	5854	30.9	0.973
13	5873	31	4.8119925298616
13	5892	31.1	0.973
13	5911	31.2	7.6340696073468
13	5930	31.3	0.973
13	5949	31.4	2.2729180762253
13	5968	31.5	5.8511716441665
13	5987	31.6	0.97049403097331
13	6006	31.7	2.6596201345261
13	6025	31.8	6.3583683814099
13	6044	31.9	5.1940853033517
13	6063	32	2.0974782412471
13	6082	32.1	0.86195311655868
13	6101	32.2	4.0141982068208
13	6120	32.3	3.1276961504899
13	6139	32.4	3.4138639694053
13	6158	32.5	2.7455265246877
13	6177	32.6	3.7855464268974
13	6196	32.7	0.3378928359897
13	6215	32.8	6.1369297368343
13	6234	32.9	0.45786007030932
13	6253	33	5.424005600529
13	6272	33.1	6.1776380705758
13	6291	33.2	0.973
13	6310	33.3	6.3858268033035
13	6329	33.4	0.973
13	6348	33.5	4.3602085685982
13	6367	33.6	6.7336094466202
13	6386	33.7	3.977311587417
13	6405	33.8	3.640584852034
13	6424	33.9	0.973
13	6443	34	8.5239532251025
13	6462	34.1	0.973
13	6481	34.2	2.18052075656
13	6500	34.3	4.6664594422366
13	6519	34.4	4.7741679461704
13	6538	34.5	3.3570239960503
13	6557	34.6	0.31961908993733
13	6576	34.7	5.9608245196463
13	6595	34.8	3.7252871830121
13	6614	34.9	4.8973157135619
13	6633	35	1.1049100522988
13	6652	35.1	1.0511957459551
13	6671	35.2	4.7919338738667
13	6690	35.3	5.9898837175881
13	6709	35.4	3.3282300335168
13	6728	35.5	0.973
13	6747	35.6	3.9759602477271
13	6766	35.7	4.7040403128901
13	6785	35.8	4.4659758485211
13	6804	35.9	3.1256965646945
13	6823	36	3.4294855424183
13	6842	36.1	0.973
13	6861	36.2	6.6231782692125
13	6880	36.3	0.973
13	6899	36.4	9.0095796095722
13	6918	36.5	0.973
13	6937	36.6	2.6636077106576
13	6956	36.7	8.7017296762657
13	6975	36.8	0.88428925986484
13	6994	36.9	2.8804463585261
13	7013	37	2.4589187926858
13	7032	37.1	2.2535165225689
13	7051	37.2	8.0438758495952
13	7070	37.3	0.973
13	7089	37.4	2.9530286629055
13	7108	37.5	8.5210609071466
13	7127	37.6	1.1254775854446
13	7146	37.7	3.741266203387
13	7165	37.8	1.3183253408467
13	7184	37.9	0.973
13	7203	38	5.9692763739102
13	7222	38.1	6.4387566359402
13	7241	38.2	0.973
13	7260	38.3	1.5171763540355
13	7279	38.4	8.1504836313152
13	7298	38.5	0.973
13	7317	38.6	9.5683539544117
13	7336	38.7	3.1510378794566
13	7355	38.8	0.973
13	7374	38.9	0.99823560751138
13	7393	39	3.2842774079163
13	7412	39.1	6.6264399750824
13	7431	39.2	1.2473575944417
13	7450	39.3	3.1001724771511
13	7469	39.4	6.2543749759607
13	7488	39.5	4.5266188439537
13	7507	39.6	0.94513798639998
13	7526	39.7	3.5740372147571
13	7545	39.8	2.228829207778
13	7564	39.9	1.0145995501317
13	7583	40	5.364055973294
12	40	0.3	0.013902047369641
12	59	0.4	0.29079445311801
12	78	0.5	0.3109365846263
12	97	0.6	0.11290123385844
12	116	0.7	0.31306811838874
12	135	0.8	-0.28072631442917
12	154	0.9	-0.26651146227959
12	173	1	-0.43485469925219
12	192	1.1	0.43184902158099
12	211	1.2	0.11335009171162
12	230	1.3	-0.57628216836601
12	249	1.4	0.64828738935759
12	268	1.5	-0.40400842940436
12	287	1.6	0.36390944095327
12	306	1.7	-0.76558770204429
12	325	1.8	1.0618456899654
12	344	1.9	-0.94865741573742
12	363	2	0.51542297436391
12	382	2.1	-0.42549352622594
12	401	2.2	0.36456325361506
12	420	2.3	-0.20592266912573
12	439	2.4	-0.05427905330432
12	458	2.5	0.18019671845249
12	477	2.6	0.058040531910954
12	496	2.7	-0.28761510986367
12	515	2.8	0.84852041820994
12	534	2.9	-0.47800066119525
12	553	3	0.3734485016437
12	572	3.1	-0.71576158339155
12	591	3.2	0.6764781675767
12	610	3.3	0.1057318384759
12	629	3.4	-0.24559968011452
12	648	3.5	0.22680598243603
12	667	3.6	-0.094440478249425
12	686	3.7	-0.21341787029524
12	705	3.8	-0.67094234132675
12	724	3.9	0.58844302636572
12	743	4	-0.21204751397018
12	762	4.1	-0.37607065127229
12	781	4.2	1.0439886946697
12	800	4.3	-1.1316873321775
12	819	4.4	0.41166974732185
12	838	4.5	0.62689957988916
12	857	4.6	-0.24341535929125
12	876	4.7	-0.51029415926898
12	895	4.8	0.18571211381349
12	914	4.9	0.36761847089512
12	933	5	0.37260834262707
12	952	5.1	-0.7746032159077
12	971	5.2	-0.42207778093871
12	990	5.3	0.39800663541538
12	1009	5.4	0.023050874448387
12	1028	5.5	-0.46831289511175
12	1047	5.6	0.53748400341718
12	1066	5.7	0.21772626745516
12	1085	5.8	-0.078427592245873
12	1104	5.9	-0.19345638114029
12	1123	6	0.37115323503969
12	1142	6.1	-0.43776811617427
12	1161	6.2	0.46481575074139
12	1180	6.3	-0.59948685804848
12	1199	6.4	-0.22259324057956
12	1218	6.5	0.37315743835642
12	1237	6.6	0.84364179403057
12	1256	6.7	-0.79205678680449
12	1275	6.8	-0.066057599126346
12	1294	6.9	-0.38777097826824
12	1313	7	0.12187698951458
12	1332	7.1	0.47913982581811
12	1351	7.2	0.59008258250543
12	1370	7.3	-0.51407787727658
12	1389	7.4	0.56052300403827
12	1408	7.5	-0.54824022387621
12	1427	7.6	-0.69923855171073
12	1446	7.7	0.80618493994695
12	1465	7.8	-0.15788378743451
12	1484	7.9	-0.27009794502522
12	1503	8	-0.24935911896172
12	1522	8.1	-0.049087453633554
12	1541	8.2	0.91183734161316
12	1560	8.3	-0.45287675221918
12	1579	8.4	-0.38988780784422
12	1598	8.5	0.46297368393279
12	1617	8.6	-0.5300801943056
12	1636	8.7	-0.0057650520466268
12	1655	8.8	1.08945866297
12	1674	8.9	-0.25298790060916
12	1693	9	0.34887042096816
12	1712	9.1	-1.0828809906263
12	1731	9.2	0.25371832274832
12	1750	9.3	-0.25247557866386
12	1769	9.4	0.74965274520217
12	1788	9.5	-0.17301776353268
12	1807	9.6	-0.20150095226711
12	1826	9.7	0.50424533064945
12	1845	9.8	-0.26632792570162
12	1864	9.9	0.29037623221519
12	1883	10	-0.55012963344343
12	1902	10.1	-0.17435453934596
12	1921	10.2	0.53983910286334
12	1940	10.3	-0.18825512083716
12	1959	10.4	-0.41966421585528
12	1978	10.5	0.46801093716638
12	1997	10.6	-0.6499221443897
12	2016	10.7	0.33425250188447
12	2035	10.8	-0.32842335586903
12	2054	10.9	0.27494851532392
12	2073	11	0.30011519326365
12	2092	11.1	-0.68818514959421
12	2111	11.2	1.1210797181353
12	2130	11.3	-0.84606833045836
12	2149	11.4	0.46176462902221
12	2168	11.5	-0.3427046159748
12	2187	11.6	0.55333564279135
12	2206	11.7	-0.08244867420288
12	2225	11.8	-0.84785725243854
12	2244	11.9	0.49003647579809
12	2263	12	-0.092564329993898
12	2282	12.1	0.16440081121399
12	2301	12.2	0.3934751971159
12	2320	12.3	-0.21363714972974
12	2339	12.4	-0.29112104950475
12	2358	12.5	0.18712335128804
12	2377	12.6	0.006155933090497
12	2396	12.7	-0.31972504865845
12	2415	12.8	0.55650858860464
12	2434	12.9	-0.12411258884242
12	2453	13	-0.47541989304591
12	2472	13.1	-0.16806706159841
12	2491	13.2	1.0082654805155
12	2510	13.3	0.013636315357886
12	2529	13.4	-0.34017461116893
12	2548	13.5	-0.25710046784951
12	2567	13.6	0.67364850973245
12	2586	13.7	-1.2159376739059
12	2605	13.8	0.84235387891528
12	2624	13.9	0.12965492936786
12	2643	14	0.10399841375182
12	2662	14.1	0.057205169158969
12	2681	14.2	-1.1528170014499
12	2700	14.3	0.94081169890707
12	2719	14.4	-0.3596860653488
12	2738	14.5	0.11582524669354
12	2757	14.6	0.45286421552301
12	2776	14.7	-0.32856534842868
12	2795	14.8	-0.15201876447534
12	2814	14.9	-0.48345824561547
12	2833	15	-0.082559898751811
12	2852	15.1	1.1272148677148
12	2871	15.2	-0.61198288553861
12	2890	15.3	0.44390831203202
12	2909	15.4	-0.7958645503037
12	2928	15.5	-0.11164695706682
12	2947	15.6	0.58959753897508
12	2966	15.7	0.35285138362084
12	2985	15.8	0.13877525581048
12	3004	15.9	-1.2341583414469
12	3023	16	0.79206946515477
12	3042	16.1	-0.060819999384698
12	3061	16.2	0.48033343134449
12	3080	16.3	-0.40938038297465
12	3099	16.4	0.45352856931277
12	3118	16.5	-0.27834868379866
12	3137	16.6	-0.69442016324029
12	3156	16.7	-0.23297536964531
12	3175	16.8	0.25236155493186
12	3194	16.9	0.53377406119836
12	3213	17	-0.19518866385333
12	3232	17.1	0.19573297330641
12	3251	17.2	0.20734330299312
12	3270	17.3	0.011054777796389
12	3289	17.4	-0.38020369843579
12	3308	17.5	-0.53445858163762
12	3327	17.6	-0.090410825610157
12	3346	17.7	0.43662694841625
12	3365	17.8	0.015076691214908
12	3384	17.9	-0.24308548578993
12	3403	18	0.36870334050619
12	3422	18.1	0.5845531055704
12	3441	18.2	-0.84334642451722
12	3460	18.3	-0.38128781346607
12	3479	18.4	0.94267402014232
12	3498	18.5	-0.53537650939543
12	3517	18.6	-0.24074807162396
12	3536	18.7	0.14746835420372
12	3555	18.8	-0.27773917438463
12	3574	18.9	0.53332152850928
12	3593	19	0.44440751431974
12	3612	19.1	-0.013068537926308
12	3631	19.2	0.0048020122805781
12	3650	19.3	-0.45607141319199
12	3669	19.4	0.15270384184554
12	3688	19.5	-0.67356594079175
12	3707	19.6	0.3765995879192
12	3726	19.7	0.77382386527024
12	3745	19.8	0.037540402193557
12	3764	19.9	-0.56084518281278
12	3783	20	-0.51111690844412
12	3802	20.1	-0.12401978115083
12	3821	20.2	0.4663704124512
12	3840	20.3	0.097706884937381
12	3859	20.4	-0.40574924799149
12	3878	20.5	0.14401275294368
12	3897	20.6	0.34480968068817
12	3916	20.7	-0.25803082485215
12	3935	20.8	0.091047469968899
12	3954	20.9	-0.13994743342046
12	3973	21	0.31875966887455
12	3992	21.1	0.017527333367617
12	4011	21.2	-0.58552450505086
12	4030	21.3	0.99995696833357
12	4049	21.4	-0.11959857279432
12	4068	21.5	-0.84807590532584
12	4087	21.6	-0.029691445175537
12	4106	21.7	0.3362324908143
12	4125	21.8	0.4174321152037
12	4144	21.9	-0.25353668548632
12	4163	22	0.67555259442887
12	4182	22.1	-0.40534633118661
12	4201	22.2	-0.14766871191096
12	4220	22.3	-0.59785196499433
12	4239	22.4	0.26709567219953
12	4258	22.5	0.2908745873021
12	4277	22.6	-0.035462498758001
12	4296	22.7	-0.39693004500588
12	4315	22.8	0.72708687009293
12	4334	22.9	-0.84611250809395
12	4353	23	0.73658676915802
12	4372	23.1	-0.83688599611634
12	4391	23.2	0.6314090642147
12	4410	23.3	-0.31178191946822
12	4429	23.4	0.72525637352374
12	4448	23.5	-0.74977224017491
12	4467	23.6	0.109431069158
12	4486	23.7	0.56079880802429
12	4505	23.8	0.03694927331523
12	4524	23.9	-0.8074586602859
12	4543	24	0.078651032317403
12	4562	24.1	0.093901763530475
12	4581	24.2	0.51733967082107
12	4600	24.3	0.13258034391331
12	4619	24.4	-0.68843500635122
12	4638	24.5	0.31372128482907
12	4657	24.6	-0.4904618405504
12	4676	24.7	0.82623160593212
12	4695	24.8	0.051878957170999
12	4714	24.9	0.052163553703544
12	4733	25	-0.776421879814
12	4752	25.1	0.89911600349005
12	4771	25.2	-0.93150365345643
12	4790	25.3	0.85071750273926
12	4809	25.4	-0.16231063653247
12	4828	25.5	-0.69134509894067
12	4847	25.6	0.022828855761325
12	4866	25.7	0.8919028590666
12	4885	25.8	-0.21260510955472
12	4904	25.9	-0.10108542270025
12	4923	26	-0.50745273958892
12	4942	26.1	0.79849251834677
12	4961	26.2	-0.64039422806818
12	4980	26.3	0.71033191725146
12	4999	26.4	-1.0709374319297
12	5018	26.5	-0.19667874095028
12	5037	26.6	0.36508504308294
12	5056	26.7	0.67842265367506
12	5075	26.8	-0.42999093786346
12	5094	26.9	-0.088469764636834
12	5113	27	-0.26922352961265
12	5132	27.1	0.23538669853004
12	5151	27.2	0.50449439832011
12	5170	27.3	-0.30779575980269
12	5189	27.4	-0.55081119821406
12	5208	27.5	0.50258194876367
12	5227	27.6	-0.29028078636621
12	5246	27.7	0.29822207223624
12	5265	27.8	-0.28910516758913
12	5284	27.9	0.27353029653895
12	5303	28	-0.45033280416394
12	5322	28.1	0.84527021578982
12	5341	28.2	-0.7526789339725
12	5360	28.3	-0.26121244910176
12	5379	28.4	0.14553355355748
12	5398	28.5	0.10644807098434
12	5417	28.6	-0.26598732068667
12	5436	28.7	0.3009014785988
12	5455	28.8	0.97437794874423
12	5474	28.9	-0.34506073000376
12	5493	29	-0.18331651671325
12	5512	29.1	-0.023051191051486
12	5531	29.2	0.16949660666288
12	5550	29.3	-0.13427767558024
12	5569	29.4	0.36461794846691
12	5588	29.5	-1.1180554801365
12	5607	29.6	0.74695294185076
12	5626	29.7	-0.21201734980568
12	5645	29.8	0.29328683421483
12	5664	29.9	-0.57884745686316
12	5683	30	0.49075046635696
12	5702	30.1	0.067731297551674
12	5721	30.2	-0.052295749727627
12	5740	30.3	0.12696845543104
12	5759	30.4	-0.61540558035485
12	5778	30.5	-0.19629109555389
12	5797	30.6	0.781173410546
12	5816	30.7	-0.81582847058307
12	5835	30.8	1.2205989548936
12	5854	30.9	-0.67537246148564
12	5873	31	0.29754873975179
12	5892	31.1	-0.751761358534
12	5911	31.2	0.82190846221057
12	5930	31.3	-0.55482583611738
12	5949	31.4	-0.17291595172136
12	5968	31.5	0.49175886148586
12	5987	31.6	-0.41598241135944
12	6006	31.7	-0.10070804147979
12	6025	31.8	0.58573901061898
12	6044	31.9	0.36722940562761
12	6063	32	-0.20746695920828
12	6082	32.1	-0.43653425513767
12	6101	32.2	0.15009534792046
12	6120	32.3	-0.014894577837552
12	6139	32.4	0.03824602304956
12	6158	32.5	-0.085901480820034
12	6177	32.6	0.1073504854925
12	6196	32.7	-0.53380548541899
12	6215	32.8	0.5449547314085
12	6234	32.9	-0.51146080873441
12	6253	33	0.41278679240495
12	6272	33.1	0.54985461067407
12	6291	33.2	-0.74576174535324
12	6310	33.3	0.58947883278599
12	6329	33.4	-0.83288492432331
12	6348	33.5	0.2156910382444
12	6367	33.6	0.65388931392228
12	6386	33.7	0.14106083696241
12	6405	33.8	0.078222096851093
12	6424	33.9	-1.1470699346391
12	6443	34	0.98615978651214
12	6462	34.1	-0.83944478819614
12	6481	34.2	-0.18976289683486
12	6500	34.3	0.2729800854344
12	6519	34.4	0.29166817176154
12	6538	34.5	0.027716404758387
12	6557	34.6	-0.5371742762858
12	6576	34.7	0.51258899304084
12	6595	34.8	0.095995358796799
12	6614	34.9	0.31259218794293
12	6633	35	-0.39153074431233
12	6652	35.1	-0.40086608028503
12	6671	35.2	0.29538410371167
12	6690	35.3	0.51553105164786
12	6709	35.4	0.020849025133067
12	6728	35.5	-0.65732376361264
12	6747	35.6	0.1433112651808
12	6766	35.7	0.27760047952182
12	6785	35.8	0.23227213784121
12	6804	35.9	-0.016713028051889
12	6823	36	0.039595047710463
12	6842	36.1	-0.5843630647054
12	6861	36.2	0.63266088264061
12	6880	36.3	-1.0637699134648
12	6899	36.4	1.0758448663866
12	6918	36.5	-0.93262872833293
12	6937	36.6	-0.099778262292993
12	6956	36.7	1.0187729674625
12	6975	36.8	-0.43270035008902
12	6994	36.9	-0.060989228589463
12	7013	37	-0.13906937011051
12	7032	37.1	-0.17686118332204
12	7051	37.2	0.89592774056364
12	7070	37.3	-0.91562686138786
12	7089	37.4	-0.046236013737513
12	7108	37.5	0.9843561963644
12	7127	37.6	-0.38807565064637
12	7146	37.7	0.098046895186421
12	7165	37.8	-0.35173053748437
12	7184	37.9	-0.58538214110307
12	7203	38	0.51468310619239
12	7222	38.1	0.59844539696353
12	7241	38.2	-0.68147274537477
12	7260	38.3	-0.3137473643292
12	7279	38.4	0.91700744980482
12	7298	38.5	-1.0852364254417
12	7317	38.6	1.1796569873579
12	7336	38.7	-0.01229390001388
12	7355	38.8	-0.70089496348519
12	7374	38.9	-0.41039646950086
12	7393	39	0.016316303168438
12	7412	39.1	0.63617863103282
12	7431	39.2	-0.36441344888882
12	7450	39.3	-0.018904132838351
12	7469	39.4	0.5658275026828
12	7488	39.5	0.24337911549956
12	7507	39.6	-0.42133953089362
12	7526	39.7	0.067735664010975
12	7545	39.8	-0.18209731688255
12	7564	39.9	-0.40756105317268
12	7583	40	0.40180809106676
11	21	0.2	22.23846706942
[...]
10	1579	8.4	39.873061864207
10	1598	8.5	40.147222408075
10	1617	8.6	40.421953739611
10	1636	8.7	40.696031549687
10	1655	8.8	40.970102252187
10	1674	8.9	41.245516118654
10	1693	9	41.520618083216
10	1712	9.1	41.796150160635
10	1731	9.2	42.074937049912
10	1750	9.3	42.380674914239
10	1769	9.4	42.686066098406
10	1788	9.5	42.992486648399
10	1807	9.6	43.298669623629
10	1826	9.7	43.604575913161
10	1845	9.8	43.911174593821
10	1864	9.9	44.21740757334
10	1883	10	44.524039275295
10	1902	10.1	44.829915581306
10	1921	10.2	45.135552476996
10	1940	10.3	45.441930638462
10	1959	10.4	45.748050302391
10	1978	10.5	46.05359371551
10	1997	10.6	46.359779765459
10	2016	10.7	46.665073392019
10	2035	10.8	46.970825988554
10	2054	10.9	47.276127619251
10	2073	11	47.581806788225
10	2092	11.1	47.887898052432
10	2111	11.2	48.193044353417
10	2130	11.3	48.499730035343
10	2149	11.4	48.805253960935
10	2168	11.5	49.111411946406
10	2187	11.6	49.417099356104
10	2206	11.7	49.723546563994
10	2225	11.8	50.029880559669
10	2244	11.9	50.3350503426
10	2263	12	50.645785930382
10	2282	12.1	50.976066596494
10	2301	12.2	51.306591144282
10	2320	12.3	51.637699395947
10	2339	12.4	51.968490725902
10	2358	12.5	52.298850190045
10	2377	12.6	52.629487243796
10	2396	12.7	52.960133429614
10	2415	12.8	53.290305316794
10	2434	12.9	53.621302761017
10	2453	13	53.952116089445
10	2472	13.1	54.282224152491
10	2491	13.2	54.612082895133
10	2510	13.3	54.943437357134
10	2529	13.4	55.274812048035
10	2548	13.5	55.605682104233
10	2567	13.6	55.936170762718
10	2586	13.7	56.267658750386
10	2605	13.8	56.597342945744
10	2624	13.9	56.928276737592
10	2643	14	57.259402867064
10	2662	14.1	57.590683273802
10	2681	14.2	57.922048541998
10	2700	14.3	58.251703654743
10	2719	14.4	58.582754422005
10	2738	14.5	58.913271610143
10	2757	14.6	59.243960620155
10	2776	14.7	59.595956767594
10	2795	14.8	59.949192447207
10	2814	14.9	60.302187371926
10	2833	15	60.654416634995
10	2852	15.1	61.006515146446
10	2871	15.2	61.360398848662
10	2890	15.3	61.71331334241
10	2909	15.4	62.066930861856
10	2928	15.5	62.419287956083
10	2947	15.6	62.771468232986
10	2966	15.7	63.124582266275
10	2985	15.8	63.478255116744
10	3004	15.9	63.832147748119
10	3023	16	64.184085820395
10	3042	16.1	64.537278307545
10	3061	16.2	64.890374472951
10	3080	16.3	65.244231351183
10	3099	16.4	65.597439886228
10	3118	16.5	65.951366682748
10	3137	16.6	66.304852653376
10	3156	16.7	66.657238858113
10	3175	16.8	67.009256095502
10	3194	16.9	67.361673002494
10	3213	17	67.714935257212
10	3232	17.1	68.06788838808
10	3251	17.2	68.421151504831
10	3270	17.3	68.774742994957
10	3289	17.4	69.128351992736
10	3308	17.5	69.481358854977
10	3327	17.6	69.833519285403
10	3346	17.7	70.185536530554
10	3365	17.8	70.540316390214
10	3384	17.9	70.918913575747
10	3403	18	71.297097553286
10	3422	18.1	71.675908269879
10	3441	18.2	72.055712636976
10	3460	18.3	72.434083444673
10	3479	18.4	72.811806121644
10	3498	18.5	73.191131199674
10	3517	18.6	73.569546219861
10	3536	18.7	73.947552005301
10	3555	18.8	74.325808464294
10	3574	18.9	74.703592809347
10	3593	19	75.08228371909
10	3612	19.1	75.461730053355
10	3631	19.2	75.841154173113
10	3650	19.3	76.220586455554
10	3669	19.4	76.599243486637
10	3688	19.5	76.978160090798
10	3707	19.6	77.355931736307
10	3726	19.7	77.734343543276
10	3745	19.8	78.114070731972
10	3764	19.9	78.493861733587
10	3783	20	78.872699384526
10	3802	20.1	79.250668215218
10	3821	20.2	79.628426231328
10	3840	20.3	80.006977005515
10	3859	20.4	80.3856938664
10	3878	20.5	80.763721015879
10	3897	20.6	81.14923105385
10	3916	20.7	81.545017073989
10	3935	20.8	81.940344883476
10	3954	20.9	82.335834374888
10	3973	21	82.731075347912
10	3992	21.1	83.126882373754
10	4011	21.2	83.522720524601
10	4030	21.3	83.917518902139
10	4049	21.4	84.314093001372
10	4068	21.5	84.710454717685
10	4087	21.6	85.105310422408
10	4106	21.7	85.500113401119
10	4125	21.8	85.895513460851
10	4144	21.9	86.291654795745
10	4163	22	86.687345900672
10	4182	22.1	87.08423665062
10	4201	22.2	87.480407587319
10	4220	22.3	87.876316294198
10	4239	22.4	88.271163336687
10	4258	22.5	88.666484687166
10	4277	22.6	89.062322572188
10	4296	22.7	89.458097482972
10	4315	22.8	89.853167526131
10	4334	22.9	90.249528728781
10	4353	23	90.644387406438
10	4372	23.1	91.040554113487
10	4391	23.2	91.435234679966
10	4410	23.3	91.831036501468
10	4429	23.4	92.226284661226
10	4448	23.5	92.636014095033
10	4467	23.6	93.049654705223
10	4486	23.7	93.463498708123
10	4505	23.8	93.878385032829
10	4524	23.9	94.293340032847
10	4543	24	94.706794259759
10	4562	24.1	95.120394670445
10	4581	24.2	95.534169610488
10	4600	24.3	95.948906097547
10	4619	24.4	96.363889003432
10	4638	24.5	96.77759235806
10	4657	24.6	97.191878806895
10	4676	24.7	97.605253664863
10	4695	24.8	98.020164188043
10	4714	24.9	98.435171135407
10	4733	25	98.850275035919
10	4752	25.1	99.263935849456
10	4771	25.2	99.679267793892
10	4790	25.3	100.09286841052
10	4809	25.4	100.50805020277
10	4828	25.5	100.92293031835
10	4847	25.6	101.33652547387
10	4866	25.7	101.75016305996
10	4885	25.8	102.16545837033
10	4904	25.9	102.58035852483
10	4923	26	102.99507079815
10	4942	26.1	103.40883990068
10	4961	26.2	103.8240931115
10	4980	26.3	104.23815606147
10	4999	26.4	104.65353926112
10	5018	26.5	105.06693197608
10	5037	26.6	105.47995913653
10	5056	26.7	105.89366485779
10	5075	26.8	106.30863152098
10	5094	26.9	106.7227989868
10	5113	27	107.13680201938
10	5132	27.1	107.55030466296
10	5151	27.2	107.96424480513
10	5170	27.3	108.37912261961
10	5189	27.4	108.79342835328
10	5208	27.5	109.2067103285
10	5227	27.6	109.62092642147
10	5246	27.7	110.03460298764
10	5265	27.8	110.44883384058
10	5284	27.9	110.86252735177
10	5303	28	111.27672925667
10	5322	28.1	111.69009415605
10	5341	28.2	112.10503010652
10	5360	28.3	112.51856709954
10	5379	28.4	112.93161859326
10	5398	28.5	113.34494058113
10	5417	28.6	113.7584604174
10	5436	28.7	114.1714858796
10	5455	28.8	114.58507060864
10	5474	28.9	115.00046635326
10	5493	29	115.41522075501
10	5512	29.1	115.82963443776
10	5531	29.2	116.2440052767
10	5550	29.3	116.65869114843
10	5569	29.4	117.0731274466
10	5588	29.5	117.48824143744
10	5607	29.6	117.90127736822
10	5626	29.7	118.31570161389
10	5645	29.8	118.72973179612
10	5664	29.9	119.14430709232
10	5683	30	119.55780652082
10	5702	30.1	119.97221807663
10	5721	30.2	120.38675552039
10	5740	30.3	120.80119576529
10	5759	30.4	121.21587199855
10	5778	30.5	121.6294044158
10	5797	30.6	122.04257199902
10	5816	30.7	122.45719150059
10	5835	30.8	122.87029467261
10	5854	30.9	123.28566649586
10	5873	31	123.69978304639
10	5892	31.1	124.11445263223
10	5911	31.2	124.52772496606
10	5930	31.3	124.94252492995
10	5949	31.4	125.35629367363
10	5968	31.5	125.76974102919
10	5987	31.6	126.18410238632
10	6006	31.7	126.59769058286
10	6025	31.8	127.01109159963
10	6044	31.9	127.42558129301
10	6063	32	127.8407535328
10	6082	32.1	128.25554016669
10	6101	32.2	128.66951544155
10	6120	32.3	129.08376968928
10	6139	32.4	129.49799625339
10	6158	32.5	129.912293903
10	6177	32.6	130.32643189288
10	6196	32.7	130.74076940842
10	6215	32.8	131.15411477296
10	6234	32.9	131.5684730109
10	6253	33	131.98188062851
10	6272	33.1	132.39605546721
10	6291	33.2	132.81125228642
10	6310	33.3	133.22506300473
10	6329	33.4	133.63996935063
10	6348	33.5	134.05332766521
10	6367	33.6	134.46708687128
10	6386	33.7	134.88206142068
10	6405	33.8	135.29729815107
10	6424	33.9	135.712680268
10	6443	34	136.1259303975
10	6462	34.1	136.54101344077
10	6481	34.2	136.9545362603
10	6500	34.3	137.36770637936
10	6519	34.4	137.78138386949
10	6538	34.5	138.19560346509
10	6557	34.6	138.60987457544
10	6576	34.7	139.02314727343
10	6595	34.8	139.43737268864
10	6614	34.9	139.85177652445
10	6633	35	140.26676135589
10	6652	35.1	140.68101847352
10	6671	35.2	141.09453052634
10	6690	35.3	141.50859159119
10	6709	35.4	141.9236108415
10	6728	35.5	142.33866884258
10	6747	35.6	142.75250511694
10	6766	35.7	143.16660775502
10	6785	35.8	143.58122635181
10	6804	35.9	143.99627665836
10	6823	36	144.41129590144
10	6842	36.1	144.82638873737
10	6861	36.2	145.24039545408
10	6880	36.3	145.65557805816
10	6899	36.4	146.06878349937
10	6918	36.5	146.48398854641
10	6937	36.6	146.89746017453
10	6956	36.7	147.31074635102
10	6975	36.8	147.72592605735
10	6994	36.9	148.14030153049
10	7013	37	148.55456364676
10	7032	37.1	148.96856728345
10	7051	37.2	149.38224219928
10	7070	37.3	149.79758232019
10	7089	37.4	150.21122062249
10	7108	37.5	150.62477298879
10	7127	37.6	151.04015491663
10	7146	37.7	151.45481555243
10	7165	37.8	151.86965842189
10	7184	37.9	152.28384755172
10	7203	38	152.69694866823
10	7222	38.1	153.11100639416
10	7241	38.2	153.52617641326
10	7260	38.3	153.94007982144
10	7279	38.4	154.35340008693
10	7298	38.5	154.76842473704
10	7317	38.6	155.18143232581
10	7336	38.7	155.59663246954
10	7355	38.8	156.01180976336
10	7374	38.9	156.42568434738
10	7393	39	156.83879615304
10	7412	39.1	157.25193828481
10	7431	39.2	157.66626284216
10	7450	39.3	158.07991008693
10	7469	39.4	158.49352219577
10	7488	39.5	158.90818597294
10	7507	39.6	159.32330210371
10	7526	39.7	159.73763511695
10	7545	39.8	160.15209402624
10	7564	39.9	160.56621448259
10	7583	40	160.97957743061
9	2	0.1	5599.3036387901
9	21	0.2	5599.3036387901
9	40	0.3	5597.0900997391
9	59	0.4	5594.876422312
9	78	0.5	5592.6598504189
9	97	0.6	5590.440183572
9	116	0.7	5588.2193929459
9	135	0.8	5585.9954861494
9	154	0.9	5583.7743736042
9	173	1	5581.5559138207
9	192	1.1	5579.3417824285
9	211	1.2	5577.1233525625
9	230	1.3	5574.9037944493
9	249	1.4	5572.6899724469
9	268	1.5	5570.4696976191
9	287	1.6	5568.2534441495
9	306	1.7	5566.033568453
9	325	1.8	5563.821313148
9	344	1.9	5561.5984886033
9	363	2	5559.3851066619
9	382	2.1	5557.166594381
9	401	2.2	5554.9523173134
9	420	2.3	5552.734411511
9	439	2.4	5550.5185553907
9	458	2.5	5548.303239545
9	477	2.6	5546.0861300844
9	496	2.7	5543.8684429087
9	515	2.8	5541.6536185529
9	534	2.9	5539.4303483224
9	553	3	5537.2118359429
9	572	3.1	5534.9896063879
9	591	3.2	5532.7745012727
9	610	3.3	5530.5539931102
9	629	3.4	5528.3328865117
9	648	3.5	5526.114222564
9	667	3.6	5523.8933028812
9	686	3.7	5521.6733224712
9	705	3.8	5519.4554646427
9	724	3.9	5517.2442797783
9	743	4	5515.0272424598
9	762	4.1	5512.8123140938
9	781	4.2	5510.6011259984
9	800	4.3	5508.3795547469
9	819	4.4	5506.1692388723
9	838	4.5	5503.9548286705
9	857	4.6	5501.7341835391
9	876	4.7	5499.5159593338
9	895	4.8	5497.3028103406
9	914	4.9	5495.0878143178
9	933	5	5492.869162087
9	952	5.1	5490.6468040205
9	971	5.2	5488.4321498937
9	990	5.3	5486.2216936089
9	1009	5.4	5484.0072788855
9	1028	5.5	5481.7926349061
9	1047	5.6	5479.5826486072
9	1066	5.7	5477.3673166754
9	1085	5.8	5475.1498193123
9	1104	5.9	5472.9331019634
9	1123	6	5470.7183086657
9	1142	6.1	5468.4998240044
9	1161	6.2	5466.2856932357
9	1180	6.3	5464.0675711198
9	1199	6.4	5461.8570592791
9	1218	6.5	5459.6487589944
9	1237	6.6	5457.4367512361
9	1256	6.7	5455.2163615476
9	1275	6.8	5453.0038412709
9	1294	6.9	5450.7919773038
9	1313	7	5448.5839660019
9	1332	7.1	5446.3747438016
9	1351	7.2	5444.1607611489
9	1370	7.3	5441.9409157815
9	1389	7.4	5439.7261779906
9	1408	7.5	5437.5058711718
9	1427	7.6	5435.2910113464
9	1446	7.7	5433.0830987453
9	1465	7.8	5430.8671763633
9	1484	7.9	5428.652822622
9	1503	8	5426.4411524156
9	1522	8.1	5424.2319596952
9	1541	8.2	5422.0232546789
9	1560	8.3	5419.8054901814
9	1579	8.4	5417.5922252018
9	1598	8.5	5415.3828339189
9	1617	8.6	5413.1688428009
9	1636	8.7	5410.960118249
9	1655	8.8	5408.7514509752
9	1674	8.9	5406.5319594788
9	1693	9	5404.3149815219
9	1712	9.1	5402.094537393
9	1731	9.2	5399.8854546395
9	1750	9.3	5397.6773478416
9	1769	9.4	5395.4717448448
9	1788	9.5	5393.2587075393
9	1807	9.6	5391.0473860516
9	1826	9.7	5388.8380628494
9	1845	9.8	5386.6237390446
9	1864	9.9	5384.4120564148
9	1883	10	5382.1974941229
9	1902	10.1	5379.9883874683
9	1921	10.2	5377.7810098884
9	1940	10.3	5375.5682787222
9	1959	10.4	5373.3574144827
9	1978	10.5	5371.1507120547
9	1997	10.6	5368.9393683606
9	2016	10.7	5366.7344699465
9	2035	10.8	5364.5262567493
9	2054	10.9	5362.3213005276
9	2073	11	5360.1136176406
9	2092	11.1	5357.9029585102
9	2111	11.2	5355.6991241142
9	2130	11.3	5353.484171967
9	2149	11.4	5351.2776102821
9	2168	11.5	5349.066469276
9	2187	11.6	5346.8587268726
9	2206	11.7	5344.6454970378
9	2225	11.8	5342.4330848468
9	2244	11.9	5340.229080859
9	2263	12	5338.0209224439
9	2282	12.1	5335.8165175378
9	2301	12.2	5333.6104848828
9	2320	12.3	5331.4005563907
9	2339	12.4	5329.1927431413
9	2358	12.5	5326.9878123104
9	2377	12.6	5324.7810287526
9	2396	12.7	5322.5741842442
9	2415	12.8	5320.3705053655
9	2434	12.9	5318.1613164397
9	2453	13	5315.953356365
9	2472	13.1	5313.7501034701
9	2491	13.2	5311.548514624
9	2510	13.3	5309.3369428408
9	2529	13.4	5307.125236043
9	2548	13.5	5304.916897348
9	2567	13.6	5302.7111042304
9	2586	13.7	5300.4986412517
9	2605	13.8	5298.2982173932
9	2624	13.9	5296.0894533049
9	2643	14	5293.8794054902
9	2662	14.1	5291.6683279769
9	2681	14.2	5289.4566840695
9	2700	14.3	5287.2564543182
9	2719	14.4	5285.0469094964
9	2738	14.5	5282.8409259622
9	2757	14.6	5280.6337956307
9	2776	14.7	5278.4253801767
9	2795	14.8	5276.2204855786
9	2814	14.9	5274.017093771
9	2833	15	5271.8184812179
9	2852	15.1	5269.6206848154
9	2871	15.2	5267.4117452649
9	2890	15.3	5265.2088555068
9	2909	15.4	5263.0015774673
9	2928	15.5	5260.802166993
9	2947	15.6	5258.6038602112
9	2966	15.7	5256.3997249287
9	2985	15.8	5254.1921015133
9	3004	15.9	5251.983106227
9	3023	16	5249.7863112848
9	3042	16.1	5247.5816862938
9	3061	16.2	5245.3776625425
9	3080	16.3	5243.1688904271
9	3099	16.4	5240.9641652653
9	3118	16.5	5238.7549567205
9	3137	16.6	5236.5484998077
9	3156	16.7	5234.3489076259
9	3175	16.8	5232.1516185355
9	3194	16.9	5229.9518347104
9	3213	17	5227.7467742308
9	3232	17.1	5225.5436433
9	3251	17.2	5223.3385774396
9	3270	17.3	5221.1314618749
9	3289	17.4	5218.9242370275
9	3308	17.5	5216.7207707059
9	3327	17.6	5214.5225878057
9	3346	17.7	5212.3252986669
9	3365	17.8	5210.1240375326
9	3384	17.9	5207.9265828082
9	3403	18	5205.7315264266
9	3422	18.1	5203.5328323247
9	3441	18.2	5201.328370874
9	3460	18.3	5199.1322300924
9	3479	18.4	5196.9398511927
9	3498	18.5	5194.7381716328
9	3517	18.6	5192.541774233
9	3536	18.7	5190.3477521144
9	3555	18.8	5188.1522750358
9	3574	18.9	5185.9595382021
9	3593	19	5183.7615394834
9	3612	19.1	5181.5591561278
9	3631	19.2	5179.3569017096
9	3650	19.3	5177.1545999137
9	3669	19.4	5174.9567978335
9	3688	19.5	5172.7574891387
9	3707	19.6	5170.5648260157
9	3726	19.7	5168.368447266
9	3745	19.8	5166.1644337744
9	3764	19.9	5163.9600498997
9	3783	20	5161.7611994654
9	3802	20.1	5159.5673918397
9	3821	20.2	5157.3748078245
9	3840	20.3	5155.1776224809
9	3859	20.4	5152.9794731365
9	3878	20.5	5150.7853270167
9	3897	20.6	5148.5910357989
9	3916	20.7	5146.3950505129
9	3935	20.8	5144.2016075699
9	3954	20.9	5142.0072675485
9	3973	21	5139.8143064103
9	3992	21.1	5137.6182045759
9	4011	21.2	5135.421930047
9	4030	21.3	5133.2314246125
9	4049	21.4	5131.0310667362
9	4068	21.5	5128.8318872486
9	4087	21.6	5126.641063739
9	4106	21.7	5124.4505327753
9	4125	21.8	5122.256688958
9	4144	21.9	5120.058732238
9	4163	22	5117.863273581
9	4182	22.1	5115.661158795
9	4201	22.2	5113.463037832
9	4220	22.3	5111.2663718289
9	4239	22.4	5109.075596381
9	4258	22.5	5106.8821892753
9	4277	22.6	5104.6859162214
9	4296	22.7	5102.4899925747
9	4315	22.8	5100.2979798264
9	4334	22.9	5098.0988031888
9	4353	23	5095.9079631842
9	4372	23.1	5093.709865689
9	4391	23.2	5091.5200139192
9	4410	23.3	5089.3239409606
9	4429	23.4	5087.1309399474
9	4448	23.5	5084.9332282946
9	4467	23.6	5082.7438717231
9	4486	23.7	5080.5534386152
9	4505	23.8	5078.3574886067
9	4524	23.9	5076.161175107
9	4543	24	5073.9728050427
9	4562	24.1	5071.7836612429
9	4581	24.2	5069.5935936774
9	4600	24.3	5067.398436744
9	4619	24.4	5065.2019755415
9	4638	24.5	5063.0122868702
9	4657	24.6	5060.8195119421
9	4676	24.7	5058.6315619693
9	4695	24.8	5056.4354838808
9	4714	24.9	5054.2388954292
9	4733	25	5052.0417938148
9	4752	25.1	5049.852330309
9	4771	25.2	5047.6540216818
9	4790	25.3	5045.464876792
9	4809	25.4	5043.2673629047
9	4828	25.5	5041.0714457605
9	4847	25.6	5038.8823297758
9	4866	25.7	5036.6929892104
9	4885	25.8	5034.4948744836
9	4904	25.9	5032.2988512755
9	4923	26	5030.1038225029
9	4942	26.1	5027.9137858348
9	4961	26.2	5025.7158939364
9	4980	26.3	5023.5243019645
9	4999	26.4	5021.3257220488
9	5018	26.5	5019.1376775608
9	5037	26.6	5016.9515679147
9	5056	26.7	5014.761866717
9	5075	26.8	5012.5654914854
9	5094	26.9	5010.373346322
9	5113	27	5008.1820714865
9	5132	27.1	5005.9934451579
9	5151	27.2	5003.8025031948
9	5170	27.3	5001.6065982301
9	5189	27.4	4999.4137212294
9	5208	27.5	4997.2262628753
9	5227	27.6	4995.0338603334
9	5246	27.7	4992.8443134507
9	5265	27.8	4990.6518327858
9	5284	27.9	4988.4621962148
9	5303	28	4986.2698687689
9	5322	28.1	4984.0819715059
9	5341	28.2	4981.8857588335
9	5360	28.3	4979.6969506968
9	5379	28.4	4977.5107122572
9	5398	28.5	4975.3230421203
9	5417	28.6	4973.1343247926
9	5436	28.7	4970.9482241351
9	5455	28.8	4968.7591633366
9	5474	28.9	4966.5605170217
9	5493	29	4964.3652652677
9	5512	29.1	4962.1718169038
9	5531	29.2	4959.9785953077
9	5550	29.3	4957.7837062759
9	5569	29.4	4955.5901382109
9	5588	29.5	4953.3929831894
9	5607	29.6	4951.2068271229
9	5626	29.7	4949.0133228505
9	5645	29.8	4946.8219043148
9	5664	29.9	4944.6276005478
9	5683	30	4942.4389912362
9	5702	30.1	4940.2455541299
9	5721	30.2	4938.0514507119
9	5740	30.3	4935.8578617573
9	5759	30.4	4933.6630237409
9	5778	30.5	4931.4742398233
9	5797	30.6	4929.2873869342
9	5816	30.7	4927.0928491927
9	5835	30.8	4924.9063372253
9	5854	30.9	4922.7078175237
9	5873	31	4920.5159418496
9	5892	31.1	4918.3211390174
9	5911	31.2	4916.1337316941
9	5930	31.3	4913.9382387844
9	5949	31.4	4911.7482040157
9	5968	31.5	4909.5598703207
9	5987	31.6	4907.3666989109
9	6006	31.7	4905.1776197593
9	6025	31.8	4902.9895313307
9	6044	31.9	4900.7956806505
9	6063	32	4898.5982173233
9	6082	32.1	4896.402794968
9	6101	32.2	4894.2116670512
9	6120	32.3	4892.0190625602
9	6139	32.4	4889.8266045957
9	6158	32.5	4887.6337703831
9	6177	32.6	4885.4417812328
9	6196	32.7	4883.248736014
9	6215	32.8	4881.0609421468
9	6234	32.9	4878.8677872465
9	6253	33	4876.6796638803
9	6272	33.1	4874.487479693
9	6291	33.2	4872.2898862696
9	6310	33.3	4870.0996293335
9	6329	33.4	4867.903573355
9	6348	33.5	4865.7157109446
9	6367	33.6	4863.5257266575
9	6386	33.7	4861.3293096849
9	6405	33.8	4859.1315050157
9	6424	33.9	4856.9329308308
9	6443	34	4854.7456410328
9	6462	34.1	4852.5486498135
9	6481	34.2	4850.3599166956
9	6500	34.3	4848.1730503845
9	6519	34.4	4845.9834986113
9	6538	34.5	4843.7910775304
9	6557	34.6	4841.5983837873
9	6576	34.7	4839.4109745366
9	6595	34.8	4837.2185226531
9	6614	34.9	4835.025126408
9	6633	35	4832.8286550137
9	6652	35.1	4830.6360353327
9	6671	35.2	4828.4473592018
9	6690	35.3	4826.2557772076
9	6709	35.4	4824.0591236379
9	6728	35.5	4821.8622649643
9	6747	35.6	4819.6718727627
9	6766	35.7	4817.4800707258
9	6785	35.8	4815.2855377732
9	6804	35.9	4813.088719826
9	6823	36	4810.8920662944
9	6842	36.1	4808.6950232436
9	6861	36.2	4806.5037289085
9	6880	36.3	4804.3062107242
9	6899	36.4	4802.1191574567
9	6918	36.5	4799.9215204842
9	6937	36.6	4797.733058317
9	6956	36.7	4795.5455777261
9	6975	36.8	4793.3480748793
9	6994	36.9	4791.1548287549
9	7013	37	4788.9621826165
9	7032	37.1	4786.7709045836
9	7051	37.2	4784.5813664359
9	7070	37.3	4782.3830145315
9	7089	37.4	4780.1936701754
9	7108	37.5	4778.0047806695
9	7127	37.6	4775.8062074854
9	7146	37.7	4773.6114520247
9	7165	37.8	4771.4157320204
9	7184	37.9	4769.2234721916
9	7203	38	4767.0369711038
9	7222	38.1	4764.8454067822
9	7241	38.2	4762.6479552089
9	7260	38.3	4760.457207675
9	7279	38.4	4758.2695466545
9	7298	38.5	4756.0728645042
9	7317	38.6	4753.8868584489
9	7336	38.7	4751.6892474291
9	7355	38.8	4749.4917573515
9	7374	38.9	4747.3011623809
9	7393	39	4745.1146047165
9	7412	39.1	4742.9278865392
9	7431	39.2	4740.7349099067
9	7450	39.3	4738.545518219
9	7469	39.4	4736.3563125021
9	7488	39.5	4734.1615404146
9	7507	39.6	4731.9643740666
9	7526	39.7	4729.771352678
9	7545	39.8	4727.5776649347
9	7564	39.9	4725.3857685875
9	7583	40	4723.1978816529
