version 2
run General-0-20170228-11:41:07-8180
attr configname General
attr datetime 20170228-11:41:07
attr experiment General
attr inifile omnetpp.ini
attr iterationvars ""
attr iterationvars2 $repetition=0
attr measurement ""
attr network com.liborio.cooperativepositioning.LocScenario
attr processid 8180
attr repetition 0
attr replication #0
attr resultdir results
attr runnumber 0
attr seedset 0
param **.coreDebug false
param **.debug false
param *.**.nic.mac1609_4.bitrate 18Mbps
param *.**.nic.mac1609_4.txPower 20mW
param *.**.nic.mac1609_4.useServiceChannel false
param *.**.nic.phy80211p.analogueModels "xmldoc(\"config_splm.xml\")"
param *.**.nic.phy80211p.decider "xmldoc(\"config_splm.xml\")"
param *.**.nic.phy80211p.sensitivity -89dBm
param *.**.nic.phy80211p.thermalNoise -110dBm
param *.**.nic.phy80211p.usePropagationDelay true
param *.**.nic.phy80211p.useThermalNoise true
param *.annotations.draw false
param *.connectionManager.alpha 2.0
param *.connectionManager.carrierFrequency "5.890e9 Hz"
param *.connectionManager.pMax 20mW
param *.connectionManager.sat -89dBm
param *.connectionManager.sendDirect true
param *.manager.autoShutdown true
param *.manager.host "\"localhost\""
param *.manager.launchConfig "xmldoc(\"dmat.launchd.xml\")"
param *.manager.margin 25
param *.manager.moduleDisplayString "\"\""
param *.manager.moduleName "\"node\""
param *.manager.moduleType "\"org.car2x.veins.nodes.Car\""
param *.manager.port 9999
param *.manager.updateInterval 0.1s
param *.node[*].appl.beaconInterval 0.1s
param *.node[*].appl.beaconPriority 3
param *.node[*].appl.dataOnSch false
param *.node[*].appl.dataPriority 2
param *.node[*].appl.debug false
param *.node[*].appl.headerLength "256 bit"
param *.node[*].appl.maxOffset 0.005s
param *.node[*].appl.sendBeacons true
param *.node[*].appl.sendData true
param *.node[*].applType "\"LocAppCom\""
param *.node[*].mobilityType "\"TraCIMobility\""
param *.node[*].mobilityType.debug true
param *.node[*].veinsmobility.x 0
param *.node[*].veinsmobility.y 0
param *.node[*].veinsmobility.z 1.895
param *.node[*].veinsmobilityType "\"org.car2x.veins.modules.mobility.traci.TraCIMobility\""
param *.node[*].veinsmobilityType.debug true
param *.playgroundSizeX 10000m
param *.playgroundSizeY 10000m
param *.playgroundSizeZ 50m
param *.world.use2D false
param *.world.useTorus false

vector 2  LocScenario.node[0].veinsmobility  posx  ETV
vector 3  LocScenario.node[0].veinsmobility  posy  ETV
vector 9  LocScenario.node[1].veinsmobility  posx  ETV
vector 10  LocScenario.node[1].veinsmobility  posy  ETV
vector 4  LocScenario.node[0].veinsmobility  speed  ETV
vector 11  LocScenario.node[1].veinsmobility  speed  ETV
vector 5  LocScenario.node[0].veinsmobility  acceleration  ETV
vector 6  LocScenario.node[0].veinsmobility  co2emission  ETV
vector 12  LocScenario.node[1].veinsmobility  acceleration  ETV
vector 13  LocScenario.node[1].veinsmobility  co2emission  ETV
vector 16  LocScenario.node[2].veinsmobility  posx  ETV
vector 17  LocScenario.node[2].veinsmobility  posy  ETV
vector 23  LocScenario.node[3].veinsmobility  posx  ETV
vector 24  LocScenario.node[3].veinsmobility  posy  ETV
vector 18  LocScenario.node[2].veinsmobility  speed  ETV
vector 25  LocScenario.node[3].veinsmobility  speed  ETV
vector 19  LocScenario.node[2].veinsmobility  acceleration  ETV
vector 20  LocScenario.node[2].veinsmobility  co2emission  ETV
vector 26  LocScenario.node[3].veinsmobility  acceleration  ETV
vector 27  LocScenario.node[3].veinsmobility  co2emission  ETV
vector 30  LocScenario.node[4].veinsmobility  posx  ETV
vector 31  LocScenario.node[4].veinsmobility  posy  ETV
vector 37  LocScenario.node[5].veinsmobility  posx  ETV
vector 38  LocScenario.node[5].veinsmobility  posy  ETV
vector 32  LocScenario.node[4].veinsmobility  speed  ETV
vector 39  LocScenario.node[5].veinsmobility  speed  ETV
vector 33  LocScenario.node[4].veinsmobility  acceleration  ETV
vector 34  LocScenario.node[4].veinsmobility  co2emission  ETV
vector 40  LocScenario.node[5].veinsmobility  acceleration  ETV
vector 41  LocScenario.node[5].veinsmobility  co2emission  ETV
vector 44  LocScenario.node[6].veinsmobility  posx  ETV
vector 45  LocScenario.node[6].veinsmobility  posy  ETV
vector 51  LocScenario.node[7].veinsmobility  posx  ETV
vector 52  LocScenario.node[7].veinsmobility  posy  ETV
vector 46  LocScenario.node[6].veinsmobility  speed  ETV
vector 53  LocScenario.node[7].veinsmobility  speed  ETV
vector 47  LocScenario.node[6].veinsmobility  acceleration  ETV
vector 48  LocScenario.node[6].veinsmobility  co2emission  ETV
vector 54  LocScenario.node[7].veinsmobility  acceleration  ETV
vector 55  LocScenario.node[7].veinsmobility  co2emission  ETV
vector 58  LocScenario.node[8].veinsmobility  posx  ETV
vector 59  LocScenario.node[8].veinsmobility  posy  ETV
vector 65  LocScenario.node[9].veinsmobility  posx  ETV
vector 66  LocScenario.node[9].veinsmobility  posy  ETV
vector 60  LocScenario.node[8].veinsmobility  speed  ETV
vector 67  LocScenario.node[9].veinsmobility  speed  ETV
vector 61  LocScenario.node[8].veinsmobility  acceleration  ETV
vector 62  LocScenario.node[8].veinsmobility  co2emission  ETV
vector 68  LocScenario.node[9].veinsmobility  acceleration  ETV
vector 69  LocScenario.node[9].veinsmobility  co2emission  ETV
13	40	0.3	2.1395542372694
13	59	0.4	2.2583753621684
13	78	0.5	3.3007571691198
13	97	0.6	3.382255632291
13	116	0.7	2.6393343134133
13	135	0.8	3.3984189218549
13	154	0.9	1.1585339683029
13	173	1	1.210654376876
13	192	1.1	0.973
13	211	1.2	3.8341085371981
13	230	1.3	2.6392517970361
13	249	1.4	0.973
13	268	1.5	4.6522232782693
13	287	1.6	0.973
13	306	1.7	3.5818395396753
13	325	1.8	0.973
13	344	1.9	6.2171716549288
13	363	2	0.973
13	382	2.1	4.14826202655
13	443	2.2	0.973
13	504	2.3	2.8951753684596
13	565	2.4	0.973
13	626	2.5	4.8025507541485
13	687	2.6	0.973
13	748	2.7	3.2147920275264
13	809	2.8	1.9697476048218
13	870	2.9	2.2131847190217
13	931	3	1.8924444166408
13	992	3.1	3.4083401193612
13	1053	3.2	4.0647513876713
13	1114	3.3	0.973
13	1175	3.4	4.8703485784186
13	1236	3.5	1.0658627454347
13	1297	3.6	1.846578654113
13	1358	3.7	3.8662955937176
13	1419	3.8	1.9264205109267
13	1480	3.9	1.7651762767167
13	1541	4	2.2587454828036
13	1602	4.1	2.8740486020018
13	1729	4.2	0.973
13	1856	4.3	0.973
13	1983	4.4	4.0156410004788
13	2110	4.5	0.973
13	2237	4.6	5.2495790568829
13	2364	4.7	1.24704019864
13	2491	4.8	0.973
13	2618	4.9	3.0372929151586
13	2745	5	0.973
13	2872	5.1	6.1230284436551
13	2999	5.2	1.9646784906445
13	3126	5.3	0.973
13	3253	5.4	4.949355460943
13	3380	5.5	2.3192973936622
13	3507	5.6	0.973
13	3634	5.7	2.8235476711155
13	3761	5.8	2.9466949725151
13	3888	5.9	0.973
13	4015	6	3.12790392357
13	4142	6.1	0.973
13	4359	6.2	5.4156144401444
13	4576	6.3	1.5911599616893
13	4793	6.4	1.4192352852398
13	5010	6.5	2.991574833849
13	5227	6.6	0.973
13	5444	6.7	2.0711347669014
13	5661	6.8	2.4559910026101
13	5878	6.9	2.3042452142882
13	6095	7	6.0345813788405
13	6312	7.1	0.973
13	6529	7.2	4.6891721008415
13	6746	7.3	3.7161488237835
13	6963	7.4	1.3857096652095
13	7180	7.5	3.1601423728381
13	7397	7.6	1.2071451590425
13	7614	7.7	0.973
13	7831	7.8	4.0761547491943
13	8048	7.9	0.973
13	8265	8	2.4862952085437
13	8482	8.1	3.4638597567471
13	8813	8.2	0.973
13	9144	8.3	6.5132536434443
13	9475	8.4	0.973
13	9806	8.5	5.3759193176735
13	10137	8.6	0.973
13	10468	8.7	4.7777324853618
13	10799	8.8	0.973
13	11130	8.9	1.5742837020907
13	11461	9	3.3290058601692
13	11792	9.1	0.973
13	12123	9.2	5.2059940947392
13	12454	9.3	0.973
13	12785	9.4	3.1116846525774
13	13116	9.5	3.4581935715431
13	13447	9.6	0.973
13	13778	9.7	4.7905855205008
13	14109	9.8	0.973
13	14440	9.9	2.8370348431602
13	14771	10	0.973
13	15102	10.1	4.9180793724761
13	15433	10.2	4.159422989187
13	15764	10.3	0.973
13	16095	10.4	1.9400843790772
13	16426	10.5	4.4897326783672
13	16757	10.6	1.6375125017653
13	17088	10.7	0.973
13	17419	10.8	4.6896847996671
13	17750	10.9	0.973
13	18081	11	1.4281446193869
13	18412	11.1	4.2770167336245
13	18743	11.2	0.973
13	19074	11.3	2.5677374546442
13	19405	11.4	3.1447542291842
13	19736	11.5	4.4174681126102
13	20067	11.6	0.973
13	20398	11.7	1.087729555633
13	20729	11.8	4.2769505614582
13	21060	11.9	4.008333263831
13	21391	12	1.4724767280953
13	21722	12.1	0.973
13	22053	12.2	6.3184806080744
13	22384	12.3	1.2951924933352
13	22715	12.4	0.973
13	23046	12.5	2.1105198432898
13	23377	12.6	3.9284667264595
13	23708	12.7	1.093702421815
13	24039	12.8	2.7134020914941
13	24370	12.9	3.1073130431197
13	24701	13	0.973
13	25032	13.1	1.9809751767861
13	25363	13.2	2.5427649930335
13	25694	13.3	5.3664240235789
13	26025	13.4	2.2157831755258
13	26356	13.5	0.973
13	26687	13.6	4.597892080931
13	27018	13.7	3.7869697178098
13	27349	13.8	0.973
13	27680	13.9	2.1853891589716
13	28011	14	2.4370617013855
13	28342	14.1	3.0567809922944
13	28673	14.2	1.662142654051
13	29004	14.3	1.3499747613383
13	29335	14.4	0.973
13	29666	14.5	6.4910075056379
13	29997	14.6	0.973
13	30328	14.7	3.1761682720263
13	30659	14.8	0.973
13	30990	14.9	2.1369283733508
13	31321	15	5.2885857824037
13	31652	15.1	0.973
13	31983	15.2	1.2663602125906
13	32314	15.3	4.0875945833509
13	32645	15.4	0.973
13	32976	15.5	2.2832700867756
13	33307	15.6	2.4208145578003
13	33638	15.7	3.2391588052748
13	33969	15.8	1.1773298430338
13	34300	15.9	5.1649797896892
13	34631	16	0.973
13	34962	16.1	4.0260314912004
13	35293	16.2	3.3833468049037
13	35624	16.3	3.5458765799403
13	35955	16.4	0.973
13	36286	16.5	2.3164933348115
13	36617	16.6	6.2742883554614
13	36948	16.7	0.973
13	37279	16.8	2.3427417965036
13	37610	16.9	3.9976182211052
13	37941	17	3.6044274066956
13	38272	17.1	0.973
13	38603	17.2	1.6188820332181
13	38934	17.3	5.0285315262601
13	39265	17.4	1.0613853419826
13	39596	17.5	1.3144664220488
13	39927	17.6	4.2524914895345
13	40258	17.7	3.6637303492931
13	40589	17.8	2.2492651593326
13	40920	17.9	0.973
13	41251	18	0.973
13	41582	18.1	5.2568243691963
13	41913	18.2	0.973
13	42244	18.3	5.6587999352807
13	42575	18.4	0.973
13	42906	18.5	4.1138009174368
13	43237	18.6	2.3505449240564
13	43568	18.7	1.5698346506468
13	43899	18.8	3.8625180280196
13	44230	18.9	0.973
13	44561	19	2.7251918532211
13	44892	19.1	3.39125861707
13	45223	19.2	1.9647224562227
13	45554	19.3	0.973
13	45885	19.4	2.6396681715253
13	46216	19.5	1.5683903509746
13	46547	19.6	2.5886589579594
13	46878	19.7	5.8516651444408
13	47209	19.8	2.1919310904068
13	47540	19.9	0.973
13	47871	20	4.6168231360238
13	48202	20.1	0.973
13	48533	20.2	2.3994057539935
13	48864	20.3	5.4383538829692
13	49195	20.4	0.973
13	49526	20.5	3.7756121167139
13	49857	20.6	2.45710770607
13	50188	20.7	0.973
13	50519	20.8	2.6805154957324
13	50850	20.9	3.3933780671052
13	51181	21	2.0038149683396
13	51512	21.1	0.973
13	51843	21.2	4.9537147293062
13	52174	21.3	1.0331857120039
13	52505	21.4	2.7405818175097
13	52836	21.5	3.071780894377
13	53167	21.6	0.973
13	53498	21.7	1.8961061454609
13	53829	21.8	1.8635509663009
13	54160	21.9	3.4036797771746
13	54491	22	3.2118828821741
13	54822	22.1	0.973
13	55153	22.2	5.9407306693936
13	55484	22.3	0.973
13	55815	22.4	4.8985970701429
13	56146	22.5	1.0390142982299
13	56477	22.6	3.8689527210034
13	56808	22.7	0.973
13	57139	22.8	0.973
13	57470	22.9	4.2590402799753
13	57801	23	0.973
13	58132	23.1	5.3271614640242
13	58463	23.2	0.973
13	58794	23.3	4.9873883108587
13	59125	23.4	0.973
13	59456	23.5	1.617448760626
13	59787	23.6	4.2044382601107
13	60118	23.7	0.973
13	60449	23.8	2.943437012827
13	60780	23.9	2.3754652566082
13	61111	24	2.4999895032791
13	61442	24.1	5.3217532462704
13	61773	24.2	0.973
13	62104	24.3	6.7912246291416
13	62435	24.4	0.973
13	62766	24.5	2.0853819779168
13	63097	24.6	5.3954282091403
13	63428	24.7	0.973
13	63759	24.8	3.1561363685549
13	64090	24.9	4.6772904549232
13	64421	25	0.973
13	64752	25.1	2.9151318441771
13	65083	25.2	3.5072093223577
13	65414	25.3	2.4399863351816
13	65745	25.4	3.9757133811892
13	66076	25.5	0.973
13	66407	25.6	3.0451908514427
13	66738	25.7	0.973
13	67069	25.8	3.8540922911829
13	67400	25.9	4.2963310727619
13	67731	26	0.973
13	68062	26.1	0.973
13	68393	26.2	4.8839832305803
13	68724	26.3	2.1971664102564
13	69055	26.4	10.848161080156
13	69386	26.5	9.5196364611263
13	69717	26.6	7.3424488298168
13	70048	26.7	12.571710716889
13	70379	26.8	11.287557996911
13	70710	26.9	12.36353093757
13	71041	27	10.968494136766
13	71372	27.1	13.153265731205
13	71703	27.2	8.1604687153867
13	72034	27.3	9.3649979863007
13	72365	27.4	13.23890133213
13	72696	27.5	11.057750341073
13	73027	27.6	8.6405222969838
13	73358	27.7	12.518375487753
13	73689	27.8	9.3039011773266
13	74020	27.9	10.413861338616
13	74351	28	10.521438805796
13	74682	28.1	10.116323010894
13	75013	28.2	12.007289711765
13	75344	28.3	14.79934562034
13	75675	28.4	14.812134376432
13	76006	28.5	12.118694150514
13	76337	28.6	7.2690830500896
13	76668	28.7	0.973
13	76999	28.8	7.4684938375642
13	77330	28.9	1.9874106526325
13	77661	29	0.973
13	77992	29.1	2.9093388741196
13	78323	29.2	3.6903193310586
13	78654	29.3	0.68041490854951
13	78985	29.4	3.5401072589119
13	79316	29.5	2.8547597151991
13	79647	29.6	5.8742225593343
13	79978	29.7	2.1191566436637
13	80309	29.8	0.973
13	80640	29.9	6.5908123148498
13	80971	30	0.973
13	81302	30.1	2.6961123263871
13	81633	30.2	7.3859187196596
13	81964	30.3	0.973
13	82295	30.4	0.78722838564261
13	82626	30.5	8.8352156100324
13	82957	30.6	2.5111158788877
13	83288	30.7	0.973
13	83619	30.8	5.67868422611
13	83950	30.9	5.6256026178292
13	84281	31	0.973
13	84612	31.1	2.2054521519189
13	84943	31.2	6.9766088382959
13	85274	31.3	0.973
13	85605	31.4	2.2855621460224
13	85936	31.5	2.7854608593522
13	86267	31.6	4.8451695891041
13	86598	31.7	3.1330980171415
13	86929	31.8	2.1239245167557
13	87260	31.9	4.4370582124147
13	87591	32	3.6506272969469
13	87922	32.1	3.6756263139452
13	88253	32.2	0.973
13	88584	32.3	3.6426980531847
13	88915	32.4	3.2913583629892
13	89246	32.5	2.0507359541347
13	89577	32.6	1.4559878929175
13	89908	32.7	4.3232772276342
13	90239	32.8	0.973
13	90570	32.9	7.0247442315621
13	90901	33	3.7337197726473
13	91232	33.1	0.973
13	91563	33.2	5.4195670338785
13	91894	33.3	0.973
13	92225	33.4	3.0686237556521
13	92556	33.5	7.3142947534278
13	92887	33.6	1.9530379360702
13	93218	33.7	1.0252106456852
13	93549	33.8	0.973
13	93880	33.9	6.5095820564623
13	94211	34	5.024587883363
13	94542	34.1	0.973
13	94873	34.2	1.4356715646809
13	95204	34.3	6.7498718270144
13	95535	34.4	0.973
13	95866	34.5	1.3345086133779
13	96197	34.6	1.1936448236761
13	96528	34.7	7.8901301090539
13	96859	34.8	0.973
13	97190	34.9	4.1994558076867
13	97521	35	4.0862693684456
13	97852	35.1	0.973
13	98183	35.2	2.5913289824483
13	98514	35.3	4.0756618933316
13	98845	35.4	4.7157608668416
13	99176	35.5	1.245642218437
13	99507	35.6	6.298539109782
13	99838	35.7	0.973
13	100169	35.8	3.9649738652319
13	100500	35.9	1.8538242860582
13	100831	36	2.7656339519434
13	101162	36.1	1.745124433965
13	101493	36.2	7.363369804285
13	101824	36.3	0.973
13	102155	36.4	1.5795238742413
13	102486	36.5	7.1618948275061
13	102817	36.6	0.973
13	103148	36.7	6.491646186331
13	103479	36.8	1.8519757126651
13	103810	36.9	4.5717900345186
13	104141	37	0.973
13	104472	37.1	7.3884058963264
13	104803	37.2	1.350450063445
13	105134	37.3	2.2450876785277
13	105465	37.4	3.7367132577042
13	105796	37.5	0.973
13	106127	37.6	5.0837256058598
13	106458	37.7	3.2586269322541
13	106789	37.8	4.2994410245936
13	107120	37.9	3.111342478803
13	107451	38	3.0479682181017
13	107782	38.1	0.973
13	108113	38.2	5.242601092143
13	108444	38.3	4.2189087035076
13	108775	38.4	3.3955544856993
13	109106	38.5	0.973
13	109437	38.6	6.6821393372643
13	109768	38.7	3.3744422537295
13	110099	38.8	2.9290684620026
13	110430	38.9	0.973
13	110761	39	1.5313943422015
13	111092	39.1	4.0127326003208
13	111423	39.2	4.7357232905068
13	111754	39.3	3.074860960027
13	112085	39.4	0.973
13	112416	39.5	5.0300877061854
13	112747	39.6	5.6673889357072
13	113078	39.7	0.973
13	113409	39.8	6.0067534647575
13	113740	39.9	0.973
13	114071	40	2.4070828577235
13	114402	40.1	5.0705383687127
13	114733	40.2	4.2169770691
13	115064	40.3	0.973
13	115395	40.4	3.4293493877608
13	115726	40.5	1.4969930242045
13	116057	40.6	1.8798945117252
13	116388	40.7	6.9365871753048
13	116719	40.8	2.8152972280406
13	117050	40.9	0.973
13	117381	41	2.3061199869861
13	117712	41.1	7.0326369536082
13	118043	41.2	2.3935536206146
13	118374	41.3	0.973
13	118705	41.4	6.4133728605753
13	119036	41.5	0.973
13	119367	41.6	5.797621617787
13	119698	41.7	0.973
13	120029	41.8	7.6180524921437
13	120360	41.9	2.3289226117381
13	120691	42	3.1909187971055
13	121022	42.1	0.973
13	121353	42.2	1.7105129146092
13	121684	42.3	5.4746313404847
13	122015	42.4	2.3324945608488
13	122346	42.5	2.8389690580556
13	122677	42.6	5.8758126368306
13	123008	42.7	2.6724661331224
13	123339	42.8	3.4791853459617
13	123670	42.9	0.973
13	124001	43	8.7466741357793
13	124332	43.1	0.973
13	124663	43.2	2.5255588295483
13	124994	43.3	1.5387095753987
13	125325	43.4	7.947912968961
13	125656	43.5	3.3094797478777
13	125999	43.6	0.973
13	126342	43.7	8.5727677017057
13	126685	43.8	0.973
13	127028	43.9	4.9552045792851
13	127371	44	2.9761350512093
13	127714	44.1	0.973
13	128057	44.2	5.0552051935325
13	128400	44.3	3.0701042887102
13	128743	44.4	0.973
13	129086	44.5	5.2646930962318
13	129453	44.6	4.5747489931125
13	129820	44.7	3.2130380145854
13	130187	44.8	0.973
13	130554	44.9	3.6237961980318
13	130921	45	3.5963970796454
13	131288	45.1	0.973
13	131655	45.2	3.9739085920023
13	132022	45.3	3.9575586055906
13	132389	45.4	5.5014095276263
13	132756	45.5	0.973
13	133159	45.6	7.0085290285234
13	133562	45.7	0.973
13	133965	45.8	0.56170816189076
13	134368	45.9	7.1163877116582
13	134771	46	0.973
13	135174	46.1	4.7723668777083
13	135577	46.2	3.6491350671119
13	135980	46.3	4.2831643306658
13	136383	46.4	2.5306710255902
13	136786	46.5	1.5404897113901
13	137237	46.6	1.5047459082529
13	137688	46.7	1.0750254268002
13	138139	46.8	7.5252804233726
13	138590	46.9	1.0146680946833
13	139041	47	0.973
13	139492	47.1	2.6058143609365
13	139943	47.2	6.8102841855174
13	140394	47.3	0.973
13	140845	47.4	1.9539002973741
13	141296	47.5	2.4293750810666
13	141807	47.6	2.899186959543
13	142318	47.7	7.0988036147283
13	142829	47.8	1.2791761614845
13	143340	47.9	0.973
13	143851	48	8.714796768225
13	144362	48.1	0.973
13	144873	48.2	0.91519806121472
13	145384	48.3	5.4156906448654
13	145895	48.4	4.4705088282341
13	146406	48.5	0.973
13	146965	48.6	2.897927868502
13	147524	48.7	3.1496202447613
13	148083	48.8	7.7078264328039
13	148642	48.9	0.973
13	149201	49	6.3054213750214
13	149760	49.1	0.973
13	150319	49.2	3.3248035743444
13	150878	49.3	5.2356658035043
13	151437	49.4	1.2847780512442
13	151996	49.5	5.5933312456763
13	152591	49.6	1.2624035122923
13	153186	49.7	3.4537285539968
13	153781	49.8	1.8355445496304
13	154376	49.9	3.4730109756595
13	154971	50	0.973
13	155566	50.1	4.687954344778
13	156161	50.2	3.4619812012578
13	156756	50.3	2.5652326319477
13	157351	50.4	5.1879255248133
13	157946	50.5	0.973
13	158565	50.6	4.6949553808742
13	159184	50.7	2.3451603107634
13	159803	50.8	2.3754627604373
13	160422	50.9	4.3531215208582
13	161041	51	2.8355091442235
13	161660	51.1	4.1033753059527
13	162279	51.2	0.973
13	162898	51.3	1.8429974103883
13	163517	51.4	5.1034136861225
13	164136	51.5	5.2501660239005
13	164767	51.6	2.2074358509007
13	165398	51.7	0.973
13	166029	51.8	4.6901123897049
13	166660	51.9	3.8558038410095
13	167291	52	2.2790191208442
13	167922	52.1	2.041627219095
13	168553	52.2	4.0172745319133
13	169184	52.3	0.973
13	169815	52.4	6.253809541286
13	170446	52.5	1.3616949563276
13	171077	52.6	0.973
13	171708	52.7	1.6433650384144
13	172339	52.8	3.0748738607371
13	172970	52.9	8.373924005329
13	173601	53	0.973
13	174232	53.1	3.7851101452212
13	174863	53.2	3.9172948059911
13	175494	53.3	2.910377518808
13	176125	53.4	1.4955106974268
13	176756	53.5	5.7444210316511
13	177387	53.6	0.973
13	178018	53.7	6.6316037489759
13	178649	53.8	0.973
13	179280	53.9	1.9327360719333
13	179911	54	4.2242703035444
13	180542	54.1	0.973
13	181173	54.2	6.547225667566
13	181804	54.3	0.973
13	182435	54.4	4.0877756010205
13	183066	54.5	4.1990417714358
13	183697	54.6	2.4868327280399
13	184328	54.7	3.9373903259205
13	184959	54.8	0.973
13	185590	54.9	4.7651281812387
13	186221	55	3.2461841750304
13	186852	55.1	4.4747390645276
13	187483	55.2	0.973
13	188114	55.3	3.1756603603886
13	188745	55.4	6.7890930799832
13	189376	55.5	0.973
13	190007	55.6	5.1887851247826
13	190638	55.7	0.65979809626282
13	191269	55.8	0.973
13	191900	55.9	7.233460865875
13	192531	56	0.64616257178512
13	193162	56.1	4.742850405393
13	193793	56.2	0.973
13	194424	56.3	1.0614442904705
13	195055	56.4	6.026885507766
13	195686	56.5	5.6128811292081
13	196317	56.6	0.973
13	196948	56.7	3.2415461869628
13	197579	56.8	3.3301540951119
13	198210	56.9	3.2914208220061
13	198841	57	5.249410333759
13	199472	57.1	0.973
13	200103	57.2	7.5085476512654
13	200734	57.3	1.0388692150426
13	201365	57.4	4.9558442400853
13	201996	57.5	2.8331185079516
13	202627	57.6	1.6599075311069
13	203258	57.7	1.4919649267166
13	203889	57.8	5.0509492139926
13	204520	57.9	0.973
13	205151	58	2.2107103709873
13	205782	58.1	6.6405930478115
13	206413	58.2	3.0839889485655
13	207044	58.3	0.973
13	207675	58.4	5.2634230908011
13	208306	58.5	1.072899823668
13	208937	58.6	5.1447648315496
13	209568	58.7	0.973
13	210199	58.8	7.9644942515139
13	210830	58.9	0.973
13	211461	59	7.4060416197893
13	212092	59.1	0.973
13	212723	59.2	6.0036623577991
13	213354	59.3	3.4983025913508
13	213985	59.4	1.5226316530969
13	214616	59.5	3.3499606708551
13	215247	59.6	0.973
13	215878	59.7	5.4268693804113
13	216509	59.8	4.2143962750112
13	217140	59.9	0.973
13	217771	60	7.0439646222284
13	218402	60.1	1.2135472594742
13	219033	60.2	2.9027392843464
13	219664	60.3	0.973
13	220295	60.4	7.8489800330458
13	220926	60.5	0.973
13	221557	60.6	1.5376032378196
13	222188	60.7	7.1420854170836
13	222819	60.8	0.973
13	223450	60.9	3.6556308829537
13	224081	61	2.483804529397
13	224712	61.1	2.4927926588988
13	225343	61.2	4.1811882954489
13	225974	61.3	3.0244375596708
13	226605	61.4	2.964484651895
13	227236	61.5	5.6990333892983
13	227867	61.6	3.6062720056612
13	228498	61.7	3.007328059038
13	229129	61.8	2.6300443043137
13	229760	61.9	3.035220527063
13	230391	62	0.973
13	231022	62.1	1.8053654482632
13	231653	62.2	3.6339013289796
13	232284	62.3	5.0801753343136
13	232915	62.4	4.2529593704977
13	233546	62.5	2.3264381501049
13	234177	62.6	2.3376410946807
13	234808	62.7	0.58740158103554
13	235439	62.8	4.5335773095037
13	236070	62.9	0.973
13	236701	63	5.1657645598541
13	237332	63.1	0.973
13	237963	63.2	6.5135997872694
13	238594	63.3	1.9087606770847
13	239225	63.4	0.973
13	239856	63.5	6.221045667698
13	240487	63.6	0.973
13	241118	63.7	5.3524901333815
13	241749	63.8	5.2881243124238
13	242380	63.9	1.1813412346769
13	243011	64	2.5977899353046
13	243642	64.1	0.973
13	244273	64.2	7.3683674597099
13	244904	64.3	1.2579985570017
13	245535	64.4	0.973
13	246166	64.5	4.4882133330002
13	246797	64.6	6.6858216411987
13	247428	64.7	2.9317141597964
13	248059	64.8	2.8944004925606
13	248690	64.9	0.973
13	249321	65	5.2593639822075
13	249952	65.1	1.0134463150188
13	250583	65.2	2.736390179081
13	251214	65.3	2.2387243408818
13	251845	65.4	8.0689416226626
13	252476	65.5	0.973
13	253107	65.6	0.973
13	253738	65.7	5.3621781445786
13	254369	65.8	2.3998547153285
13	255000	65.9	5.3436780212845
13	255631	66	0.7195305483562
13	256262	66.1	0.973
13	256893	66.2	7.6472005028573
13	257524	66.3	0.973
13	258155	66.4	5.4800576618736
13	258786	66.5	1.5033590451525
13	259417	66.6	0.973
13	260048	66.7	7.7425289870463
13	260679	66.8	2.8718336227496
13	261310	66.9	2.6259484719377
13	261941	67	3.4530203063482
13	262572	67.1	1.5597891974595
13	263203	67.2	0.973
13	263834	67.3	6.2209922696245
13	264465	67.4	2.2410307755692
13	265096	67.5	2.6823003935005
13	265727	67.6	2.5789154742244
13	266358	67.7	2.2767286539018
13	266989	67.8	2.8654470718082
13	267620	67.9	1.3877837720575
13	268251	68	6.2236749714932
13	268882	68.1	3.1778936754184
13	269513	68.2	0.973
13	270144	68.3	6.467921080846
13	270775	68.4	1.8346349822835
13	271406	68.5	0.973
13	272037	68.6	7.6675204817149
13	272668	68.7	0.79710898450088
13	273299	68.8	4.0366044742368
13	273930	68.9	3.6183034070552
13	274561	69	2.7597643862154
13	275180	69.1	0.69202601787142
13	275799	69.2	1.461424906948
13	276418	69.3	6.0083582425312
13	277037	69.4	0.973
13	277656	69.5	4.1856710174132
13	278275	69.6	0.973
13	278894	69.7	7.5548998861056
13	279513	69.8	0.973
13	280132	69.9	3.0323267575497
13	280751	70	2.7378258263335
13	281346	70.1	2.7804339116463
13	281941	70.2	8.5966667630494
13	282536	70.3	0.973
13	283131	70.4	3.587520179713
13	283726	70.5	1.5530131053382
13	284321	70.6	7.2946586117906
13	284916	70.7	2.7422399933402
13	285511	70.8	1.9671293630914
13	286106	70.9	0.973
13	286701	71	5.2561243944749
13	287260	71.1	6.2319787906362
13	287819	71.2	1.6605567112846
13	288378	71.3	2.0786130145516
13	288937	71.4	0.973
13	289496	71.5	3.2221155320009
13	290055	71.6	7.5871977325517
13	290614	71.7	0.973
13	291173	71.8	1.6337009738925
13	291732	71.9	7.6516429256887
13	292279	72	0.84752943136038
13	292790	72.1	0.77188767680865
13	293301	72.2	1.4459377853514
13	293812	72.3	5.247658694329
13	294323	72.4	5.9650770732299
13	294834	72.5	0.973
13	295345	72.6	1.963861820268
13	295856	72.7	3.5434013410156
13	296367	72.8	4.3037566294217
13	296878	72.9	4.1486969098461
13	297377	73	0.973
13	297828	73.1	4.3480143174971
13	298279	73.2	4.1366807920908
13	298730	73.3	0.973
13	299181	73.4	3.8002033289124
13	299632	73.5	7.4482331047963
13	300083	73.6	0.79212452703469
13	300534	73.7	3.6677690436046
13	300985	73.8	0.973
13	301436	73.9	6.4068630178912
13	301887	74	2.2747207122022
13	302290	74.1	2.738534766369
13	302693	74.2	4.6464608419019
13	303096	74.3	2.7473280723448
13	303499	74.4	3.1778520440041
13	303902	74.5	0.973
13	304305	74.6	6.2241520147167
13	304708	74.7	0.973
13	305111	74.8	5.9748583024041
13	305514	74.9	2.7303565762452
13	305905	75	4.7517520753241
13	306272	75.1	1.6299705327337
13	306639	75.2	0.973
13	307006	75.3	3.7518107564736
13	307373	75.4	5.8702733464167
13	307740	75.5	0.973
13	308107	75.6	2.4845303896008
13	308474	75.7	2.4858063530811
13	308841	75.8	3.3999423555396
13	309208	75.9	3.7637005166528
13	309563	76	4.235664652767
13	309906	76.1	3.7801961205577
13	310249	76.2	1.86185810324
13	310592	76.3	0.92573872302859
13	310935	76.4	6.0480491470113
13	311278	76.5	3.7661143354179
13	311621	76.6	1.9139100878766
13	311964	76.7	4.0286134855543
13	312307	76.8	1.5383723382064
13	312650	76.9	1.4088028227226
13	312993	77	0.973
13	313324	77.1	3.2489848061413
13	313655	77.2	1.7543276361269
13	313986	77.3	5.3931152242425
13	314317	77.4	3.0154529388505
13	314648	77.5	1.1005823522306
13	314979	77.6	2.4954591753922
13	315310	77.7	7.8793878916267
13	315641	77.8	0.973
13	315972	77.9	4.8319364454301
13	316303	78	1.4894784252449
13	316634	78.1	2.0886139450178
13	316965	78.2	2.4730904440798
13	317296	78.3	3.4444625927189
13	317627	78.4	4.8696164613843
13	317958	78.5	3.5607378054721
13	318289	78.6	2.5057019113809
13	318620	78.7	2.6103240372663
13	318951	78.8	2.2967637463557
13	319282	78.9	0.973
13	319613	79	4.6968996099882
13	319944	79.1	2.3150281212934
13	320275	79.2	3.7561900870298
13	320606	79.3	0.973
13	320937	79.4	4.8904180259815
13	321268	79.5	0.86153226692148
13	321599	79.6	5.6182219616178
13	321930	79.7	2.0453637981884
13	322261	79.8	5.1643711946353
13	322592	79.9	0.973
13	322923	80	4.6263903471188
13	323254	80.1	1.2901062996783
13	323585	80.2	1.5592068082427
13	323916	80.3	2.7439161095555
13	324247	80.4	4.4802894273601
13	324578	80.5	5.507966568947
13	324909	80.6	2.1247712017811
13	325240	80.7	0.973
13	325571	80.8	5.406663722273
13	325902	80.9	5.3428327469161
13	326233	81	0.973
13	326564	81.1	3.1738606199672
13	326895	81.2	5.9894572969279
13	327226	81.3	0.973
13	327557	81.4	0.73668857736334
13	327888	81.5	2.0636982369258
13	328219	81.6	6.8214145632804
13	328550	81.7	1.2619836852215
13	328881	81.8	2.0909715042564
13	329212	81.9	3.9226346730226
13	329543	82	3.9340441484008
13	329874	82.1	3.5909954684183
13	330205	82.2	0.973
13	330536	82.3	2.3906628394988
13	330867	82.4	3.0541685366825
13	331198	82.5	2.0924557260712
13	331529	82.6	4.425552814172
13	331860	82.7	2.6723268676447
13	332191	82.8	3.1500710058135
13	332522	82.9	2.7119235895759
13	332853	83	1.566379064789
13	333184	83.1	6.2818012648039
13	333515	83.2	2.1259229437533
13	333846	83.3	3.5880946146107
13	334177	83.4	0.973
13	334508	83.5	2.7121912612943
13	334839	83.6	1.2178078558866
13	335170	83.7	2.4004819913204
13	335501	83.8	4.5379326437213
13	335832	83.9	0.973
13	336163	84	5.8856002780395
13	336494	84.1	1.9253225585964
13	336825	84.2	5.1685968097753
13	337156	84.3	0.973
13	337487	84.4	5.3769731915604
13	337818	84.5	2.7751485152305
13	338149	84.6	3.1296921444143
13	338480	84.7	0.973
13	338811	84.8	6.4794183090178
13	339142	84.9	2.6273692110516
13	339473	85	0.973
13	339804	85.1	3.3556023630641
13	340135	85.2	2.6710110813631
13	340466	85.3	5.3269825590875
13	340797	85.4	2.9312224220817
13	341128	85.5	0.973
13	341459	85.6	6.380694250425
13	341790	85.7	0.87126699070654
13	342121	85.8	5.6003735045867
13	342452	85.9	0.973
13	342783	86	6.7084208668265
13	343114	86.1	1.1502377950271
13	343445	86.2	3.4873637431282
13	343776	86.3	4.7693153719807
13	344107	86.4	1.353141328124
13	344438	86.5	0.973
13	344769	86.6	6.5358781994443
13	345100	86.7	1.1731578051388
13	345431	86.8	5.3393181870646
13	345762	86.9	2.3096201967024
13	346093	87	1.4624012008697
13	346424	87.1	3.2076818568583
13	346755	87.2	0.64794769107274
13	347086	87.3	3.0643500397358
13	347417	87.4	3.720633953127
13	347748	87.5	3.5253006327921
13	348079	87.6	0.75679766032644
13	348410	87.7	2.2245185920934
13	348741	87.8	6.3680031651607
13	349072	87.9	0.973
13	349403	88	4.953874233523
13	349734	88.1	2.3932594699299
13	350065	88.2	1.4194315230969
13	350396	88.3	2.8665071789877
13	350727	88.4	2.0662531095559
13	351058	88.5	3.7665458347587
13	351389	88.6	4.085693056116
13	351720	88.7	0.81994657568114
13	352051	88.8	6.5194397062252
13	352382	88.9	0.973
13	352713	89	7.953510447626
13	353044	89.1	3.6126900577374
13	353375	89.2	1.1342562712373
13	353706	89.3	0.973
13	354037	89.4	1.6838333534193
13	354368	89.5	5.3938392401099
13	354699	89.6	0.56324324512843
13	355030	89.7	5.5871287980072
13	355361	89.8	4.1898850009712
13	355692	89.9	0.973
13	356023	90	4.4569706442863
13	356354	90.1	2.0054232154846
13	356685	90.2	2.4042584691504
13	357016	90.3	6.5616375943541
13	357347	90.4	0.973
13	357678	90.5	2.5413558327635
13	358009	90.6	3.8560171106911
13	358340	90.7	4.4757413714426
13	358671	90.8	3.1940362383919
13	359002	90.9	2.5116204846549
13	359333	91	0.973
13	359664	91.1	7.4116839436018
13	359995	91.2	0.973
13	360326	91.3	5.8299916562109
13	360657	91.4	0.973
13	360988	91.5	4.6494014067066
13	361319	91.6	2.7399756199119
13	361650	91.7	2.2800310505389
13	361981	91.8	5.3025427699785
13	362312	91.9	0.973
13	362643	92	5.1657940253168
13	362974	92.1	3.9014654927238
13	363305	92.2	4.3684580842293
13	363636	92.3	0.973
13	363967	92.4	6.0198776184393
13	364298	92.5	3.8995616634696
13	364629	92.6	1.0119516194048
13	364960	92.7	5.4091112524635
13	365291	92.8	0.973
13	365622	92.9	1.8714433880648
13	365953	93	4.2275455428941
13	366284	93.1	0.973
13	366615	93.2	1.8156831043749
13	366946	93.3	7.1166352369336
13	367277	93.4	0.973
13	367608	93.5	2.8136881707263
13	367939	93.6	1.6167190624279
13	368270	93.7	3.1418555218864
13	368601	93.8	4.6079676234399
13	368932	93.9	5.7348186996112
13	369263	94	0.973
13	369594	94.1	5.2330020054832
13	369925	94.2	2.9213051112508
13	370256	94.3	0.973
13	370587	94.4	4.7876855574921
13	370918	94.5	2.1476619739615
13	371249	94.6	3.0121231637682
13	371580	94.7	5.4028918452755
13	371911	94.8	3.3462949175249
13	372242	94.9	0.973
13	372573	95	2.7832718104061
13	372904	95.1	4.8802726380075
13	373235	95.2	0.973
13	373566	95.3	7.0745737494883
13	373897	95.4	2.6795650787127
13	374228	95.5	2.2775433339882
13	374559	95.6	0.973
13	374890	95.7	2.2531930297684
13	375221	95.8	5.1775276283783
13	375552	95.9	1.5675629234523
13	375883	96	0.95355567596982
13	376214	96.1	6.5433210002631
13	376545	96.2	3.0488070483848
13	376876	96.3	0.65560188704784
13	377207	96.4	3.8403188884814
13	377538	96.5	0.973
13	377869	96.6	3.4357617848952
13	378200	96.7	2.1040903285188
13	378531	96.8	6.8409494201268
13	378862	96.9	4.2165710880408
13	379193	97	0.973
13	379524	97.1	5.2932443925134
13	379855	97.2	0.973
13	380186	97.3	6.3919182213962
13	380517	97.4	0.973
13	380848	97.5	1.5252664882274
13	381179	97.6	4.383438862406
13	381510	97.7	2.8474240536135
13	381841	97.8	5.2164100369131
13	382172	97.9	3.2569958221026
13	382503	98	0.973
13	382834	98.1	1.4313933902138
13	383165	98.2	5.5203512335616
13	383496	98.3	1.3339178698881
13	383827	98.4	0.973
13	384158	98.5	2.108442962554
13	384489	98.6	7.9322688330238
13	384820	98.7	1.8473562674785
13	385151	98.8	3.1259870773199
13	385482	98.9	4.2075645757137
13	385813	99	0.973
13	386144	99.1	1.3648313748008
13	386475	99.2	4.481288823542
13	386806	99.3	5.6796444814597
13	387137	99.4	2.818445829498
13	387468	99.5	3.0028580306682
13	387799	99.6	0.973
13	388130	99.7	6.937423814518
13	388461	99.8	0.973
13	388792	99.9	3.686406810014
13	389123	100	3.4339442393335
13	389454	100.1	3.7878504498565
13	389785	100.2	4.8363658569395
13	390116	100.3	1.4860023867185
13	390447	100.4	2.7794438670751
13	390778	100.5	2.1738207193063
13	391109	100.6	3.5998178478349
13	391440	100.7	1.6963475847865
13	391771	100.8	0.99779139588316
13	392102	100.9	5.2865318801158
13	392433	101	1.7986677056925
13	392764	101.1	4.739855807178
13	393095	101.2	1.7795907033735
13	393426	101.3	1.2889270030262
13	393757	101.4	5.3365550482109
13	394088	101.5	0.79509893815442
13	394419	101.6	1.4220132503252
13	394750	101.7	6.6751860046569
13	395081	101.8	0.973
13	395412	101.9	1.890808241152
13	395743	102	3.4088416078605
13	396074	102.1	2.0476028451832
13	396405	102.2	5.1204650491651
13	396736	102.3	0.973
13	397067	102.4	6.9261472266958
13	397398	102.5	3.0153207067554
13	397729	102.6	0.973
13	398060	102.7	6.3087742794776
13	398391	102.8	3.6718169880009
13	398722	102.9	0.973
13	399053	103	3.8703248093225
13	399384	103.1	4.8322045637625
13	399715	103.2	3.3469892903606
13	400046	103.3	0.8363194733042
13	400377	103.4	5.7028805176145
13	400708	103.5	0.973
13	401039	103.6	4.8382971327155
13	401370	103.7	0.973
13	401701	103.8	4.2395483541446
13	402032	103.9	5.9986820726968
13	402363	104	2.6799806721694
13	402694	104.1	1.8907172004794
13	403025	104.2	0.973
13	403356	104.3	2.2927146827084
13	403687	104.4	4.4162151439299
13	404018	104.5	2.4580996406879
13	404349	104.6	2.9873103977525
13	404680	104.7	2.3786799357259
13	405011	104.8	5.8802163364364
13	405342	104.9	3.5286444452285
13	405673	105	0.973
13	406004	105.1	7.6554215626139
13	406335	105.2	0.973
13	406666	105.3	3.6010366200018
13	406997	105.4	3.0508094178113
13	407328	105.5	1.8529760679429
13	407659	105.6	4.5674262866597
13	407990	105.7	4.3856067388229
13	408321	105.8	0.973
13	408652	105.9	4.6330978762042
13	408983	106	3.6934143750597
13	409314	106.1	1.5525184293637
13	409645	106.2	7.6325379772475
13	409976	106.3	0.973
13	410307	106.4	2.06516541724
13	410638	106.5	6.7500642024262
13	410969	106.6	2.6097026977402
13	411300	106.7	2.6688960371874
13	411631	106.8	1.7503211206031
13	411962	106.9	3.7939117772095
13	412293	107	1.1796054579872
13	412624	107.1	1.7235550107159
13	412955	107.2	0.973
13	413286	107.3	7.1348268529945
13	413617	107.4	4.064891168424
13	413948	107.5	0.973
13	414279	107.6	7.1286453020778
13	414610	107.7	2.5559748267714
13	414941	107.8	0.973
13	415272	107.9	3.0652649973335
13	415603	108	4.2373432667887
13	415934	108.1	0.973
13	416265	108.2	3.9689480879241
13	416596	108.3	5.4923555418075
13	416927	108.4	0.973
13	417258	108.5	2.6428876433931
13	417589	108.6	0.973
13	417920	108.7	2.9543754857457
13	418251	108.8	3.8028692664745
13	418582	108.9	1.5295465423856
13	418913	109	7.436006368438
13	419244	109.1	3.8929478620708
13	419575	109.2	0.973
13	419906	109.3	3.0100975396775
13	420237	109.4	3.531851907037
13	420568	109.5	1.1659594143445
13	420899	109.6	3.8991638626943
13	421230	109.7	2.4266998265096
13	421561	109.8	7.0651904295693
13	421892	109.9	1.811224701165
13	422223	110	0.973
13	422554	110.1	2.5096743403785
13	422885	110.2	1.9982295808732
13	423216	110.3	4.4159622562508
13	423547	110.4	4.7985199001236
13	423878	110.5	1.0779075338606
13	424209	110.6	4.4702720153041
13	424540	110.7	2.3630792265024
13	424871	110.8	0.973
13	425202	110.9	5.6984987203602
13	425533	111	0.973
13	425864	111.1	1.9490754697917
13	426195	111.2	8.1024374364825
13	426526	111.3	0.973
13	426857	111.4	0.973
13	427188	111.5	4.4282186780012
13	427519	111.6	4.1931966154236
13	427850	111.7	2.3680079106813
13	428181	111.8	5.7366114128074
13	428512	111.9	0.973
13	428843	112	4.712289184864
13	429174	112.1	2.4350617205296
13	429505	112.2	6.9310759762949
13	429836	112.3	0.973
13	430167	112.4	1.4475303391744
13	430498	112.5	3.1826933075061
13	430829	112.6	2.5644959854522
12	40	0.3	-0.017783838487215
12	59	0.4	0.013902047369623
12	78	0.5	0.29079445311799
12	97	0.6	0.31093658462632
12	116	0.7	0.11290123385843
12	135	0.8	0.31306811838878
12	154	0.9	-0.28072631442919
12	173	1	-0.26651146227961
12	192	1.1	-0.43485469925217
12	211	1.2	0.43184902158101
12	230	1.3	0.11335009171161
12	249	1.4	-0.57628216836601
12	268	1.5	0.64828738935757
12	287	1.6	-0.40400842940434
12	306	1.7	0.36390944095327
12	325	1.8	-0.76558770204429
12	344	1.9	1.0618456899654
12	363	2	-0.9486574157374
12	382	2.1	0.51542297436391
12	443	2.2	-0.39899747632445
12	504	2.3	0.18279060625938
12	565	2.4	-0.3961722721113
12	626	2.5	0.68900907074568
12	687	2.6	-0.46744326900226
12	748	2.7	0.26753965963145
12	809	2.8	-0.063962018280304
12	870	2.9	0.00091195285786938
12	931	3	-0.084352188953201
12	992	3.1	0.318224848737
12	1053	3.2	0.4898484320147
12	1114	3.3	-0.79353612936103
12	1175	3.4	0.70422504795715
12	1236	3.5	-0.30521981758065
12	1297	3.6	-0.097357961977824
12	1358	3.7	0.4375237185508
12	1419	3.8	-0.077044115657916
12	1480	3.9	-0.11957671719138
12	1541	4	0.01152581723872
12	1602	4.1	0.17426558355801
12	1729	4.2	-0.33585503452922
12	1856	4.3	-0.6099856632296
12	1983	4.4	0.48008182086051
12	2110	4.5	-0.35179609793705
12	2237	4.6	0.80478712178302
12	2364	4.7	-0.25712259132415
12	2491	4.8	-0.48683562986552
12	2618	4.9	0.21999128635507
12	2745	5	-0.52786258838605
12	2872	5.1	1.0367478365777
12	2999	5.2	-0.066811551898702
12	3126	5.3	-0.83947326431517
12	3253	5.4	0.72661167758051
12	3380	5.5	0.027631277567703
12	3507	5.6	-0.42054839027115
12	3634	5.7	0.16266447985545
12	3761	5.8	0.1945949549321
12	3888	5.9	-0.75876612393186
12	4015	6	0.24514309212101
12	4142	6.1	-0.34261766271666
12	4359	6.2	0.85086147058755
12	4576	6.3	-0.1653520470718
12	4793	6.4	-0.21073528367559
12	5010	6.5	0.20729062701575
12	5227	6.6	-0.59865640082862
12	5444	6.7	-0.035827031219391
12	5661	6.8	0.066763518122031
12	5878	6.9	0.026153183262796
12	6095	7	1.0124936081935
12	6312	7.1	-1.0363799365004
12	6529	7.2	0.65832554700318
12	6746	7.3	0.39733209493571
12	6963	7.4	-0.22046270566062
12	7180	7.5	0.24971148641781
12	7397	7.6	-0.26787005828229
12	7614	7.7	-0.45762231168336
12	7831	7.8	0.49408609077799
12	8048	7.9	-0.36479956211988
12	8265	8	0.072854824829847
12	8482	8.1	0.33125683686229
12	8813	8.2	-0.93218789664096
12	9144	8.3	1.1388263711939
12	9475	8.4	-1.0535166887799
12	9806	8.5	0.83903626878746
12	10137	8.6	-0.7087858171435
12	10468	8.7	0.68040144096594
12	10799	8.8	-0.49310854659415
12	11130	8.9	-0.16909793494269
12	11461	9	0.29744441388175
12	11792	9.1	-0.5403624913888
12	12123	9.2	0.79504387145862
12	12454	9.3	-0.49109971500002
12	12785	9.4	0.23957563340662
12	13116	9.5	0.33010375835003
12	13447	9.6	-0.83536224770361
12	13778	9.7	0.68517079560552
12	14109	9.8	-0.37991070616989
12	14440	9.9	0.16659959438256
12	14771	10	-0.58437037381807
12	15102	10.1	0.71967153281438
12	15433	10.2	0.51455782640259
12	15764	10.3	-0.8588064521784
12	16095	10.4	-0.071495399181725
12	16426	10.5	0.60440395071637
12	16757	10.6	-0.15315144448541
12	17088	10.7	-0.51839897911997
12	17419	10.8	0.65763554987498
12	17750	10.9	-0.68506618218962
12	18081	11	-0.20752869893332
12	18412	11.1	0.55023259785958
12	18743	11.2	-0.54629669575952
12	19074	11.3	0.096673605591064
12	19405	11.4	0.24962131325156
12	19736	11.5	0.58500617037062
12	20067	11.6	-0.45625305620488
12	20398	11.7	-0.29871784364804
12	20729	11.8	0.5490327192936
12	21060	11.9	0.47466852213256
12	21391	12	-0.19750600762199
12	21722	12.1	-0.88953307117336
12	22053	12.2	1.0873381273821
12	22384	12.3	-0.24451221986673
12	22715	12.4	-0.51651515732519
12	23046	12.5	-0.026365938130777
12	23377	12.6	0.45547222697643
12	23708	12.7	-0.29758301309776
12	24039	12.8	0.13318713586779
12	24370	12.9	0.23689884340856
12	24701	13	-0.87401775692124
12	25032	13.1	-0.059805546118881
12	25363	13.2	0.090002112486403
12	25694	13.3	0.83708686414175
12	26025	13.4	8.5043651036898e-05
12	26356	13.5	-0.91320823095739
12	26687	13.6	0.63490441550966
12	27018	13.7	0.41669205664657
12	27349	13.8	-0.54027423630469
12	27680	13.9	-0.0067513854475543
12	28011	14	0.060075451480213
12	28342	14.1	0.22406659158879
12	28673	14.2	-0.14641645157244
12	29004	14.3	-0.22912358953617
12	29335	14.4	-0.33390544373543
12	29666	14.5	1.1327558594989
12	29997	14.6	-0.517475686362
12	30328	14.7	0.25505008285398
12	30659	14.8	-0.96084439470431
12	30990	14.9	-0.01808207680007
12	31321	15	0.81744707340841
12	31652	15.1	-0.46798899802379
12	31983	15.2	-0.25090568186716
12	32314	15.3	0.49951202215162
12	32645	15.4	-0.60523534624371
12	32976	15.5	0.020986830419858
12	33307	15.6	0.057547240355049
12	33638	15.7	0.27483617994003
12	33969	15.8	-0.27465075675863
12	34300	15.9	0.78427256967407
12	34631	16	-0.87760472849478
12	34962	16.1	0.48396081340034
12	35293	16.2	0.31111833660399
12	35624	16.3	0.3524607159663
12	35955	16.4	-1.1732162461616
12	36286	16.5	0.029968024627305
12	36617	16.6	1.0771021079272
12	36948	16.7	-0.8130173685262
12	37279	16.8	0.035991126066079
12	37610	16.9	0.47458175108767
12	37941	17	0.36800034418702
12	38272	17.1	-0.99101968600881
12	38603	17.2	-0.15649593106936
12	38934	17.3	0.74902044883929
12	39265	17.4	-0.30601240531542
12	39596	17.5	-0.23818578359206
12	39927	17.6	0.54258246214596
12	40258	17.7	0.38382649458944
12	40589	17.8	0.0084321974543933
12	40920	17.9	-0.54715141004417
12	41251	18	-0.41417090855539
12	41582	18.1	0.80779453925787
12	41913	18.2	-0.8253436570987
12	42244	18.3	0.91377949283924
12	42575	18.4	-0.81654393549544
12	42906	18.5	0.50558406389319
12	43237	18.6	0.036431398405696
12	43568	18.7	-0.17085336751771
12	43899	18.8	0.43696251381188
12	44230	18.9	-0.58892791129182
12	44561	19	0.13680057437158
12	44892	19.1	0.31255706618541
12	45223	19.2	-0.066334417695195
12	45554	19.3	-0.73117799640167
12	45885	19.4	0.11543812190649
12	46216	19.5	-0.17014015605673
12	46547	19.6	0.10207814082969
12	46878	19.7	0.96436757075134
12	47209	19.8	-0.0067651380086353
12	47540	19.9	-1.1287460136227
12	47871	20	0.6402374287136
12	48202	20.1	-0.4237628595205
12	48533	20.2	0.051217118650673
12	48864	20.3	0.85480182510802
12	49195	20.4	-0.53882416137494
12	49526	20.5	0.41425044676288
12	49857	20.6	0.063839122094222
12	50188	20.7	-0.8486300206976
12	50519	20.8	0.12595175355672
12	50850	20.9	0.31448250736576
12	51181	21	-0.055243981792596
12	51512	21.1	-0.52502978176344
12	51843	21.2	0.72866577312816
12	52174	21.3	-0.31358286419417
12	52505	21.4	0.14081682343967
12	52836	21.5	0.22795456766616
12	53167	21.6	-0.53976211049594
12	53498	21.7	-0.08300003095064
12	53829	21.8	-0.091461634659211
12	54160	21.9	0.31820908305235
12	54491	22	0.26582074689214
12	54822	22.1	-0.59713562382385
12	55153	22.2	0.98816689040977
12	55484	22.3	-0.97184382628184
12	55815	22.4	0.71356655829586
12	56146	22.5	-0.31209329166449
12	56477	22.6	0.43910724350717
12	56808	22.7	-0.33633452025242
12	57139	22.8	-0.43977832980454
12	57470	22.9	0.54424096725416
12	57801	23	-0.54595599661116
12	58132	23.1	0.82602533537429
12	58463	23.2	-0.92254840617533
12	58794	23.3	0.73724867850542
12	59125	23.4	-0.72389173451811
12	59456	23.5	-0.15682581244038
12	59787	23.6	0.53136615380646
12	60118	23.7	-0.43060306273402
12	60449	23.8	0.19639495559968
12	60780	23.9	0.044683990790517
12	61111	24	0.077625623554916
12	61442	24.1	0.82311542530078
12	61773	24.2	-1.1826103492407
12	62104	24.3	1.2125433265697
12	62435	24.4	-0.95197707167827
12	62766	24.5	-0.032546859257856
12	63097	24.6	0.84359652039129
12	63428	24.7	-0.76704328090418
12	63759	24.8	0.25165413040668
12	64090	24.9	0.65199712514877
12	64421	25	-1.2284131194698
12	64752	25.1	0.18913466273807
12	65083	25.2	0.34536636550911
12	65414	25.3	0.060878287046222
12	65745	25.4	0.46695292433723
12	66076	25.5	-0.70132514357102
12	66407	25.6	0.22207941280213
12	66738	25.7	-0.44257877964991
12	67069	25.8	0.43750972293783
12	67400	25.9	0.55162291470914
12	67731	26	-0.58784350235946
12	68062	26.1	-0.56247050513047
12	68393	26.2	0.71090854927897
12	68724	26.3	-0.0040536497021115
12	69055	26.4	2.2583600564161
12	69386	26.5	1.8816442727344
12	69717	26.6	1.30260779534
12	70048	26.7	2.5973159789806
12	70379	26.8	2.2348826594651
12	70710	26.9	2.4593848179327
12	71041	27	2.0838664117735
12	71372	27.1	2.5680498673814
12	71703	27.2	1.357761090924
12	72034	27.3	1.6236580165802
12	72365	27.4	2.4922609804431
12	72696	27.5	1.9583322156454
12	73027	27.6	1.3882964722579
12	73358	27.7	2.237076738989
12	73689	27.8	1.4966620133491
12	74020	27.9	1.722912345524
12	74351	28	1.7252440935234
12	74682	28.1	1.6173722111387
12	75013	28.2	2.0008177901153
12	75344	28.3	2.5589530261699
12	75675	28.4	2.5208401050651
12	76006	28.5	1.9311988040339
12	76337	28.6	0.9175238862165
12	76668	28.7	-0.66384881143456
12	76999	28.8	0.95635720032732
12	77330	28.9	-0.17385015154723
12	77661	29	-0.51996650199872
12	77992	29.1	0.018190654111088
12	78323	29.2	0.17908138169442
12	78654	29.3	-0.44285086491147
12	78985	29.4	0.14920697442722
12	79316	29.5	0.007252466166392
12	79647	29.6	0.62848590100185
12	79978	29.7	-0.14632306667046
12	80309	29.8	-0.87086854423394
12	80640	29.9	0.7781322857365
12	80971	30	-0.80582362285352
12	81302	30.1	-0.024201111705011
12	81633	30.2	0.94157538374418
12	81964	30.3	-0.50794324891175
12	82295	30.4	-0.42038923122455
12	82626	30.5	1.2380206766073
12	82957	30.6	-0.066130944807092
12	83288	30.7	-1.1925204394152
12	83619	30.8	0.59114919991696
12	83950	30.9	0.57659764126875
12	84281	31	-0.7462275121128
12	84612	31.1	-0.12680035007655
12	84943	31.2	0.85550182126465
12	85274	31.3	-0.79947375825142
12	85605	31.4	-0.11004941833669
12	85936	31.5	-0.0063997931545856
12	86267	31.6	0.41833266338802
12	86598	31.7	0.06391853499224
12	86929	31.8	-0.14441327615639
12	87260	31.9	0.33265299089251
12	87591	32	0.16946184691044
12	87922	32.1	0.17389672368299
12	88253	32.2	-0.48607379349416
12	88584	32.3	0.16842059013435
12	88915	32.4	0.095477052265771
12	89246	32.5	-0.16029628163668
12	89577	32.6	-0.2826678321464
12	89908	32.7	0.30920519875362
12	90239	32.8	-0.76522816924843
12	90570	32.9	0.86662784565704
12	90901	33	0.18616854986178
12	91232	33.1	-0.56860520341434
12	91563	33.2	0.53421682005283
12	91894	33.3	-0.89393366521691
12	92225	33.4	0.0520549921319
12	92556	33.5	0.92457160567864
12	92887	33.6	-0.18092280107084
12	93218	33.7	-0.37194893916606
12	93549	33.8	-0.65149548477493
12	93880	33.9	0.76171238645912
12	94211	34	0.45219369463158
12	94542	34.1	-0.54127684722189
12	94873	34.2	-0.28654780446086
12	95204	34.3	0.80821519279851
12	95535	34.4	-0.47784804033579
12	95866	34.5	-0.30754147665576
12	96197	34.6	-0.33616944986861
12	96528	34.7	1.0440997881582
12	96859	34.8	-0.79620424667375
12	97190	34.9	0.28486212990249
12	97521	35	0.26024568486026
12	97852	35.1	-0.6586224417202
12	98183	35.2	-0.046491200686454
12	98514	35.3	0.26009921142833
12	98845	35.4	0.39060299489645
12	99176	35.5	-0.32607377276289
12	99507	35.6	0.71506743289063
12	99838	35.7	-0.94645795517135
12	100169	35.8	0.23686295163351
12	100500	35.9	-0.19971904125995
12	100831	36	-0.010736455162963
12	101162	36.1	-0.22173449308614
12	101493	36.2	0.93636242728682
12	101824	36.3	-0.63128822504076
12	102155	36.4	-0.25618935038803
12	102486	36.5	0.89470241661186
12	102817	36.6	-0.90580996088686
12	103148	36.7	0.75735334944913
12	103479	36.8	-0.20093513831963
12	103810	36.9	0.35981998664795
12	104141	37	-1.0077723091235
12	104472	37.1	0.94191761687398
12	104803	37.2	-0.30465616809671
12	105134	37.3	-0.119268285227
12	105465	37.4	0.18867181229869
12	105796	37.5	-0.56454387200063
12	106127	37.6	0.46776391500607
12	106458	37.7	0.089835091028334
12	106789	37.8	0.30360712730328
12	107120	37.9	0.058075760514456
12	107451	38	0.044835506565875
12	107782	38.1	-1.0284372029128
12	108113	38.2	0.50081479491201
12	108444	38.3	0.28762786781879
12	108775	38.4	0.11704758743292
12	109106	38.5	-0.78507658508606
12	109437	38.6	0.79566316227428
12	109768	38.7	0.11221300316976
12	110099	38.8	0.020228813868002
12	110430	38.9	-0.65923691901844
12	110761	39	-0.26636531846599
12	111092	39.1	0.24692350456025
12	111423	39.2	0.39454110262451
12	111754	39.3	0.0511434376007
12	112085	39.4	-0.91070797049905
12	112416	39.5	0.45761421651111
12	112747	39.6	0.58592344827485
12	113078	39.7	-0.78055998808704
12	113409	39.8	0.65680213971063
12	113740	39.9	-0.74574019485151
12	114071	40	-0.084455305617297
12	114402	40.1	0.46544192994478
12	114733	40.2	0.2874237901764
12	115064	40.3	-0.49254055274652
12	115395	40.4	0.12608744734898
12	115726	40.5	-0.27346696835011
12	116057	40.6	-0.19362947102636
12	116388	40.7	0.84935726348778
12	116719	40.8	-0.0023011301178499
12	117050	40.9	-0.49694221252576
12	117381	41	-0.10585318463857
12	117712	41.1	0.86720665364993
12	118043	41.2	-0.089954512752577
12	118374	41.3	-0.95759164795748
12	118705	41.4	0.74154203701767
12	119036	41.5	-0.67943215570413
12	119367	41.6	0.61468126599209
12	119698	41.7	-0.51328842076472
12	120029	41.8	0.98717762252782
12	120360	41.9	-0.10354915515055
12	120691	42	0.07407841291279
12	121022	42.1	-0.89885395388119
12	121353	42.2	-0.22890463124494
12	121684	42.3	0.54871194344013
12	122015	42.4	-0.10111632994374
12	122346	42.5	0.0037142799235568
12	122677	42.6	0.62829606020824
12	123008	42.7	-0.032627098169158
12	123339	42.8	0.13334059061016
12	123670	42.9	-1.2082562153693
12	124001	43	1.2196609101258
12	124332	43.1	-0.92052535801194
12	124663	43.2	-0.06044062017466
12	124994	43.3	-0.26444225846788
12	125325	43.4	1.0565408774419
12	125656	43.5	0.098637926601803
12	125999	43.6	-1.1761937204283
12	126342	43.7	1.1845473540015
12	126685	43.8	-0.58133184872567
12	127028	43.9	0.43893984491007
12	127371	44	0.030217058397817
12	127714	44.1	-0.47798760116564
12	128057	44.2	0.45952123266179
12	128400	44.3	0.049505651532655
12	128743	44.4	-0.77304036701097
12	129086	44.5	0.50404742979445
12	129453	44.6	0.35961292185821
12	129820	44.7	0.078382982686129
12	130187	44.8	-0.69602562007493
12	130554	44.9	0.16528387328144
12	130921	45	0.1589666911401
12	131288	45.1	-0.83964465889149
12	131655	45.2	0.2396618599305
12	132022	45.3	0.23521987169513
12	132389	45.4	0.55144142908976
12	132756	45.5	-0.67756821059156
12	133159	45.6	0.86115229476711
12	133562	45.7	-0.65447675918694
12	133965	45.8	-0.46731741835831
12	134368	45.9	0.88521949425342
12	134771	46	-0.87287987354213
12	135174	46.1	0.40372236305849
12	135577	46.2	0.17054816272573
12	135980	46.3	0.30021363443229
12	136383	46.4	-0.061450321669696
12	136786	46.5	-0.26543566065374
12	137237	46.6	-0.27229843954554
12	137688	46.7	-0.36075031217187
12	138139	46.8	0.969555544015
12	138590	46.9	-0.37412808900697
12	139041	47	-0.49899805514141
12	139492	47.1	-0.043325454415779
12	139943	47.2	0.82262706137264
12	140394	47.3	-0.70298722968438
12	140845	47.4	-0.17839888224842
12	141296	47.5	-0.079519836651194
12	141807	47.6	0.017931510228664
12	142318	47.7	0.88268865314316
12	142829	47.8	-0.31924432527742
12	143340	47.9	-0.54779831646009
12	143851	48	1.2133542715339
12	144362	48.1	-0.79262541658245
12	144873	48.2	-0.39387632901782
12	145384	48.3	0.53672893072946
12	145895	48.4	0.33943783456923
12	146406	48.5	-0.90733766593036
12	146965	48.6	0.017572274361726
12	147524	48.7	0.069546448253099
12	148083	48.8	1.0066769183613
12	148642	48.9	-1.0302554875612
12	149201	49	0.71936536822466
12	149760	49.1	-0.82187166935764
12	150319	49.2	0.10596267029179
12	150878	49.3	0.49948325606529
12	151437	49.4	-0.31756451937838
12	151996	49.5	0.57193146867213
12	152591	49.6	-0.322624181211
12	153186	49.7	0.13048473037781
12	153781	49.8	-0.20381091549062
12	154376	49.9	0.1347483348567
12	154971	50	-0.57944511545358
12	155566	50.1	0.38718219879083
12	156161	50.2	0.13270193494392
12	156756	50.3	-0.052771410788424
12	157351	50.4	0.48748993650079
12	157946	50.5	-0.6191919053439
12	158565	50.6	0.38687715169509
12	159184	50.7	-0.098779853782638
12	159803	50.8	-0.092247973266062
12	160422	50.9	0.31557862637566
12	161041	51	0.0019265629118337
12	161660	51.1	0.26274136607533
12	162279	51.2	-0.62675804649476
12	162898	51.3	-0.20189632265829
12	163517	51.4	0.47116643500047
12	164136	51.5	0.4986200667452
12	164767	51.6	-0.12861089883369
12	165398	51.7	-0.63643724250142
12	166029	51.8	0.3850896916585
12	166660	51.9	0.2117610317422
12	167291	52	-0.11341765862891
12	167922	52.1	-0.16204442628659
12	168553	52.2	0.2452296709642
12	169184	52.3	-0.54373726623599
12	169815	52.4	0.70587256397122
12	170446	52.5	-0.30278093363162
12	171077	52.6	-0.63222747265826
12	171708	52.7	-0.24276092401706
12	172339	52.8	0.054092331929141
12	172970	52.9	1.1430584464222
12	173601	53	-0.94183639849071
12	174232	53.1	0.19970511374996
12	174863	53.2	0.22606953151989
12	175494	53.3	0.017777223116724
12	176125	53.4	-0.27426266975233
12	176756	53.5	0.60174405570141
12	177387	53.6	-0.59641949997751
12	178018	53.7	0.78355078480673
12	178649	53.8	-0.69733263065572
12	179280	53.9	-0.18350861791987
12	179911	54	0.28983088971582
12	180542	54.1	-0.49355718137232
12	181173	54.2	0.76839991644956
12	181804	54.3	-0.6147215420846
12	182435	54.4	0.26195453349501
12	183066	54.5	0.28364088728559
12	183697	54.6	-0.069980166666213
12	184328	54.7	0.22886398497501
12	184959	54.8	-1.0428639251971
12	185590	54.9	0.40317487576978
12	186221	55	0.088201478007228
12	186852	55.1	0.34087253306062
12	187483	55.2	-0.52509081836323
12	188114	55.3	0.074003816256294
12	188745	55.4	0.81656070183961
12	189376	55.5	-0.49699798552318
12	190007	55.6	0.48643352787476
12	190638	55.7	-0.44758846873883
12	191269	55.8	-0.49093521456236
12	191900	55.9	0.90856315302663
12	192531	56	-0.45037356817627
12	193162	56.1	0.39487049547024
12	193793	56.2	-0.70143427629954
12	194424	56.3	-0.36348468610086
12	195055	56.4	0.66258390937001
12	195686	56.5	0.57341341609135
12	196317	56.6	-1.170064658951
12	196948	56.7	0.088364538899626
12	197579	56.8	0.10633109642658
12	198210	56.9	0.097932023648184
12	198841	57	0.5006300143199
12	199472	57.1	-0.85776562248359
12	200103	57.2	0.96656925540884
12	200734	57.3	-0.36904497342185
12	201365	57.4	0.43898615825455
12	201996	57.5	0.00073877882680762
12	202627	57.6	-0.24096693366303
12	203258	57.7	-0.27514930828474
12	203889	57.8	0.45893644946627
12	204520	57.9	-0.82204119518863
12	205151	58	-0.12507453744767
12	205782	58.1	0.78836429982914
12	206413	58.2	0.053112945030449
12	207044	58.3	-0.58751041591169
12	207675	58.4	0.50391475523355
12	208306	58.5	-0.3617514393525
12	208937	58.6	0.47872156072405
12	209568	58.7	-0.91571913212537
12	210199	58.8	1.0599999225931
12	210830	58.9	-1.0096700560069
12	211461	59	0.94523026063108
12	212092	59.1	-0.56709305823318
12	212723	59.2	0.65505550664387
12	213354	59.3	0.13736649092753
12	213985	59.4	-0.26963082801085
12	214616	59.5	0.10739064142108
12	215247	59.6	-0.7999985757284
12	215878	59.7	0.53771443963051
12	216509	59.8	0.28573319131976
12	217140	59.9	-0.71823237070348
12	217771	60	0.86865129154173
12	218402	60.1	-0.3333862679079
12	219033	60.2	0.015553616872062
12	219664	60.3	-0.82563836525662
12	220295	60.4	1.0356064369669
12	220926	60.5	-0.51008409189524
12	221557	60.6	-0.26534717371689
12	222188	60.7	0.88884687691461
12	222819	60.8	-1.2768613066291
12	223450	60.9	0.17433676689397
12	224081	61	-0.068487730179925
12	224712	61.1	-0.06642588451502
12	225343	61.2	0.28263643062672
12	225974	61.3	0.042762532574123
12	226605	61.4	0.030236193211728
12	227236	61.5	0.59301570721438
12	227867	61.6	0.16009516359773
12	228498	61.7	0.036353987129409
12	229129	61.8	-0.041370148118602
12	229760	61.9	0.042107002204297
12	230391	62	-0.69200234338641
12	231022	62.1	-0.20963936836925
12	231653	62.2	0.16867740973829
12	232284	62.3	0.46558428178543
12	232915	62.4	0.29326294460333
12	233546	62.5	-0.10393184265119
12	234177	62.6	-0.10133528762964
12	234808	62.7	-0.46235577031041
12	235439	62.8	0.35275347728749
12	236070	62.9	-0.73097616010344
12	236701	63	0.48479999597184
12	237332	63.1	-0.48803020457271
12	237963	63.2	0.76172200138679
12	238594	63.3	-0.18927260392811
12	239225	63.4	-0.61108386316338
12	239856	63.5	0.70194435326851
12	240487	63.6	-0.58820482247977
12	241118	63.7	0.52278394822498
12	241749	63.8	0.50651837843471
12	242380	63.9	-0.34002163314728
12	243011	64	-0.047217074455688
12	243642	64.1	-0.59146172320471
12	244273	64.2	0.93594175588805
12	244904	64.3	-0.32413761278146
12	245535	64.4	-0.85232388274743
12	246166	64.5	0.3459062243579
12	246797	64.6	0.79538141516966
12	247428	64.7	0.020666870591235
12	248059	64.8	0.012924559484233
12	248690	64.9	-1.0057223354699
12	249321	65	0.50375808482059
12	249952	65.1	-0.37387712111229
12	250583	65.2	-0.016805575438781
12	251214	65.3	-0.11961400764996
12	251845	65.4	1.0799036804121
12	252476	65.5	-0.53716547889636
12	253107	65.6	-0.5415439639939
12	253738	65.7	0.52492916069461
12	254369	65.8	-0.087461537797964
12	255000	65.9	0.51856204485521
12	255631	66	-0.43521747949999
12	256262	66.1	-0.49150491734036
12	256893	66.2	0.99338487377391
12	257524	66.3	-0.63607439596669
12	258155	66.4	0.54684243204537
12	258786	66.5	-0.27338038950695
12	259417	66.6	-0.72452912922017
12	260048	66.7	1.0136643922655
12	260679	66.8	0.008447632915356
12	261310	66.9	-0.042164114257304
12	261941	67	0.12804599383379
12	262572	67.1	-0.26196115522179
12	263203	67.2	-0.784521321347
12	263834	67.3	0.7013613001909
12	264465	67.4	-0.1207016785629
12	265096	67.5	-0.029373429156827
12	265727	67.6	-0.050597650464645
12	266358	67.7	-0.11279254334511
12	266989	67.8	0.0090157980797656
12	267620	67.9	-0.29624096550979
12	268251	68	0.70123203380501
12	268882	68.1	0.071926008467535
12	269513	68.2	-0.5798913318198
12	270144	68.3	0.74997167289258
12	270775	68.4	-0.20531616078223
12	271406	68.5	-1.0059556238354
12	272037	68.6	0.99918040204795
12	272668	68.7	-0.41903823884205
12	273299	68.8	0.25017066323198
12	273930	68.9	0.16304782901425
12	274561	69	-0.014198229578319
12	275180	69.1	-0.44073691684751
12	275799	69.2	-0.28095859880558
12	276418	69.3	0.65712246063629
12	277037	69.4	-0.62447062020656
12	277656	69.5	0.28219329644926
12	278275	69.6	-0.50780135926324
12	278894	69.7	0.97559042454229
12	279513	69.8	-1.0506581319729
12	280132	69.9	0.045416807429888
12	280751	70	-0.015640002908199
12	281346	70.1	-0.006776250596161
12	281941	70.2	1.1891795610776
12	282536	70.3	-0.85105788134968
12	283131	70.4	0.15867146993987
12	283726	70.5	-0.26195541520138
12	284321	70.6	0.92085175947286
12	284916	70.7	-0.018366227787929
12	285511	70.8	-0.17787473702334
12	286106	70.9	-0.92547182666607
12	286701	71	0.50383897842842
12	287260	71.1	0.70102949105202
12	287819	71.2	-0.24127037716099
12	288378	71.3	-0.15455515189096
12	288937	71.4	-0.82974780914373
12	289496	71.5	0.084516169084239
12	290055	71.6	0.98183278755752
12	290614	71.7	-0.68857938160654
12	291173	71.8	-0.24504641194362
12	291732	71.9	0.99463082051368
12	292279	72	-0.40881271632387
12	292790	72.1	-0.42394888654819
12	293301	72.2	-0.28375273142007
12	293812	72.3	0.50215399942825
12	294323	72.4	0.64641523254103
12	294834	72.5	-0.7908608367201
12	295345	72.6	-0.1767252470832
12	295856	72.7	0.15011228679214
12	296367	72.8	0.30613934802822
12	296878	72.9	0.27279453088994
12	297377	73	-0.71638738908806
12	297828	73.1	0.31591611620971
12	298279	73.2	0.27091547478921
12	298730	73.3	-0.75258421606851
12	299181	73.4	0.20373822904659
12	299632	73.5	0.95211841166019
12	300083	73.6	-0.42033575011885
12	300534	73.7	0.1733462864766
12	300985	73.8	-1.0119902364909
12	301436	73.9	0.74093249309808
12	301887	74	-0.11330039591996
12	302290	74.1	-0.017272060154916
12	302693	74.2	0.3756052256329
12	303096	74.3	-0.016610268852695
12	303499	74.4	0.072058365819991
12	303902	74.5	-0.75636634137481
12	304305	74.6	0.70147617475595
12	304708	74.7	-0.89277387447655
12	305111	74.8	0.6515635247808
12	305514	74.9	-0.019335454027178
12	305905	75	0.39663148978725
12	306272	75.1	-0.24722646528389
12	306639	75.2	-0.58661122494378
12	307006	75.3	0.19296242126728
12	307373	75.4	0.6275922814617
12	307740	75.5	-0.81417286091018
12	308107	75.6	-0.068700145441092
12	308474	75.7	-0.068233633483779
12	308841	75.8	0.12089160925242
12	309208	75.9	0.1954551177565
12	309563	76	0.29179912225811
12	309906	76.1	0.19677462810648
12	310249	76.2	-0.19904589583163
12	310592	76.3	-0.39208871098236
12	310935	76.4	0.66476945998147
12	311278	76.5	0.19272859867197
12	311621	76.6	-0.18893690868282
12	311964	76.7	0.24662099119741
12	312307	76.8	-0.26644451615866
12	312650	76.9	-0.29266220019199
12	312993	77	-0.52884056509939
12	313324	77.1	0.089564629038783
12	313655	77.2	-0.21975059444085
12	313986	77.3	0.53211780500135
12	314317	77.4	0.039925306523223
12	314648	77.5	-0.35573160625063
12	314979	77.6	-0.06641194943807
12	315310	77.7	1.0410446453374
12	315641	77.8	-0.69908655406909
12	315972	77.9	0.41397498087026
12	316303	78	-0.2759209321113
12	316634	78.1	-0.15160528020935
12	316965	78.2	-0.071805812488321
12	317296	78.3	0.12883520699109
12	317627	78.4	0.42148268967864
12	317958	78.5	0.15057430213783
12	318289	78.6	-0.06693960211706
12	318620	78.7	-0.045203695096987
12	318951	78.8	-0.10964221679608
12	319282	78.9	-0.79179109656252
12	319613	79	0.38829934254757
12	319944	79.1	-0.10445678634571
12	320275	79.2	0.19319398980588
12	320606	79.3	-0.61009274681563
12	320937	79.4	0.42886095594149
12	321268	79.5	-0.40498492752668
12	321599	79.6	0.5785111486912
12	321930	79.7	-0.16036919024774
12	322261	79.8	0.48275959335733
12	322592	79.9	-0.53572417260149
12	322923	80	0.37246362383012
12	323254	80.1	-0.31677385396325
12	323585	80.2	-0.26052778246811
12	323916	80.3	-0.014832305093293
12	324247	80.4	0.34350359176752
12	324578	80.5	0.55288636421317
12	324909	80.6	-0.14516215540933
12	325240	80.7	-0.94470311463809
12	325571	80.8	0.53528102934358
12	325902	80.9	0.51900582041128
12	326233	81	-0.48589775974399
12	326564	81.1	0.072680065967141
12	326895	81.2	0.65096102058888
12	327226	81.3	-0.56034659012219
12	327557	81.4	-0.43118147240023
12	327888	81.5	-0.15576193640008
12	328219	81.6	0.82492396517193
12	328550	81.7	-0.32289882230106
12	328881	81.8	-0.15100028798916
12	329212	81.9	0.22723851071206
12	329543	82	0.2285817278549
12	329874	82.1	0.1570718975039
12	330205	82.2	-0.59774542956145
12	330536	82.3	-0.088738444447536
12	330867	82.4	0.048519514268257
12	331198	82.5	-0.15024563481564
12	331529	82.6	0.33160198691768
12	331860	82.7	-0.031024637864903
12	332191	82.8	0.067584837437593
12	332522	82.9	-0.022973532788448
12	332853	83	-0.25943785447161
12	333184	83.1	0.71243889278264
12	333515	83.2	-0.14499900643713
12	333846	83.3	0.15638580978848
12	334177	83.4	-0.52451884760522
12	334508	83.5	-0.022654027887619
12	334839	83.6	-0.33138735271059
12	335170	83.7	-0.085967766190862
12	335501	83.8	0.35551728410645
12	335832	83.9	-0.51353874062187
12	336163	84	0.63374075288884
12	336494	84.1	-0.1852035060525
12	336825	84.2	0.48368495705073
12	337156	84.3	-0.49125208766199
12	337487	84.4	0.52652503135612
12	337818	84.5	-0.010864967270727
12	338149	84.6	0.062147736572662
12	338480	84.7	-0.7935899131466
12	338811	84.8	0.75415920151865
12	339142	84.9	-0.04133376176469
12	339473	85	-0.8935089612147
12	339804	85.1	0.11212270257531
12	340135	85.2	-0.029763769311835
12	340466	85.3	0.5180962211918
12	340797	85.4	0.022362762410211
12	341128	85.5	-0.47031962519977
12	341459	85.6	0.73410401176659
12	341790	85.7	-0.40359193286857
12	342121	85.8	0.57185827856884
12	342452	85.9	-0.88259536842816
12	342783	86	0.8011768701952
12	343114	86.1	-0.34606997112277
12	343445	86.2	0.13684561797415
12	343776	86.3	0.39973208573649
12	344107	86.4	-0.3045122323325
12	344438	86.5	-0.56212047617883
12	344769	86.6	0.76491420641542
12	345100	86.7	-0.34147841364611
12	345431	86.8	0.51689587468282
12	345762	86.9	-0.10763259369416
12	346093	87	-0.28191512641495
12	346424	87.1	0.078429409232932
12	346755	87.2	-0.44981471071953
12	347086	87.3	0.050243012001729
12	347417	87.4	0.18528707867954
12	347748	87.5	0.14431621974801
12	348079	87.6	-0.42722541182304
12	348410	87.7	-0.12297982559538
12	348741	87.8	0.73043898844627
12	349072	87.9	-0.90649555886632
12	349403	88	0.4410641597584
12	349734	88.1	-0.088523061107857
12	350065	88.2	-0.2895784898428
12	350396	88.3	0.010380180412888
12	350727	88.4	-0.15512032990809
12	351058	88.5	0.19677913712805
12	351389	88.6	0.26171727941836
12	351720	88.7	-0.41373448811939
12	352051	88.8	0.76298352009619
12	352382	88.9	-0.87122063534334
12	352713	89	1.0577003092039
12	353044	89.1	0.16094586707187
12	353375	89.2	-0.34973023510538
12	353706	89.3	-0.55507939162201
12	354037	89.4	-0.23449098293202
12	354368	89.5	0.53195258176419
12	354699	89.6	-0.46701315126846
12	355030	89.7	0.57130113397722
12	355361	89.8	0.28104730215858
12	355692	89.9	-0.59788651075216
12	356023	90	0.33749725485688
12	356354	90.1	-0.16898029025178
12	356685	90.2	-0.0861980852671
12	357016	90.3	0.76899784109553
12	357347	90.4	-0.64598277721089
12	357678	90.5	-0.058011075109228
12	358009	90.6	0.21314097908324
12	358340	90.7	0.33956521556249
12	358671	90.8	0.07475661551581
12	359002	90.9	-0.06583987819031
12	359333	91	-0.85259603913876
12	359664	91.1	0.94471076880584
12	359995	91.2	-0.91015569209123
12	360326	91.3	0.62027826898266
12	360657	91.4	-0.83364687631839
12	360988	91.5	0.37874443505427
12	361319	91.6	-0.016558080189846
12	361650	91.7	-0.1114935873775
12	361981	91.8	0.51173165331129
12	362312	91.9	-0.62432539290747
12	362643	92	0.48427183448801
12	362974	92.1	0.22182544292882
12	363305	92.2	0.31674654376694
12	363636	92.3	-1.0694489623653
12	363967	92.4	0.66004723259248
12	364298	92.5	0.2208670768421
12	364629	92.6	-0.37472152400294
12	364960	92.7	0.53156959945337
12	365291	92.8	-0.61446729828607
12	365622	92.9	-0.19630521405485
12	365953	93	0.29030338081064
12	366284	93.1	-0.47316347751767
12	366615	93.2	-0.2069710201118
12	366946	93.3	0.88622554179747
12	367277	93.4	-0.50285216770135
12	367608	93.5	-0.0011251901975129
12	367939	93.6	-0.24853552773127
12	368270	93.7	0.067505003814574
12	368601	93.8	0.36954407158774
12	368932	93.9	0.59895144042095
12	369263	94	-0.9387477411423
12	369594	94.1	0.49796688517091
12	369925	94.2	0.019916135305529
12	370256	94.3	-0.59997246819549
12	370587	94.4	0.4068135214504
12	370918	94.5	-0.13916524879168
12	371249	94.6	0.039716527960252
12	371580	94.7	0.53155251408462
12	371911	94.8	0.106455119187
12	372242	94.9	-0.58749813074247
12	372573	95	-0.0078062192303818
12	372904	95.1	0.4239825733006
12	373235	95.2	-0.56887438900304
12	373566	95.3	0.87490786628333
12	373897	95.4	-0.031477607321015
12	374228	95.5	-0.11409627590329
12	374559	95.6	-0.77945382343604
12	374890	95.7	-0.11668766932562
12	375221	95.8	0.48681106769944
12	375552	95.9	-0.25929414329585
12	375883	96	-0.38592002871443
12	376214	96.1	0.76841032984664
12	376545	96.2	0.045943188248216
12	376876	96.3	-0.44813237593043
12	377207	96.4	0.21054261403624
12	377538	96.5	-0.52366486035751
12	377869	96.6	0.12839941310229
12	378200	96.7	-0.14728220065589
12	378531	96.8	0.82922240295446
12	378862	96.9	0.28567675757223
12	379193	97	-0.59510217315985
12	379524	97.1	0.50830679917709
12	379855	97.2	-0.75258618802764
12	380186	97.3	0.73518829448147
12	380517	97.4	-0.56661126548423
12	380848	97.5	-0.26770887461026
12	381179	97.6	0.32312256807927
12	381510	97.7	0.0052442102693107
12	381841	97.8	0.49262550831774
12	382172	97.9	0.08782228706405
12	382503	98	-0.48193405740896
12	382834	98.1	-0.28742667471523
12	383165	98.2	0.55612847146111
12	383496	98.3	-0.30805520939175
12	383827	98.4	-0.49362227933017
12	384158	98.5	-0.14618424770887
12	384489	98.6	1.0534194398672
12	384820	98.7	-0.20232463702559
12	385151	98.8	0.061687316047028
12	385482	98.9	0.28379138454326
12	385813	99	-0.61063811262137
12	386144	99.1	-0.30102139278316
12	386475	99.2	0.3431075809058
12	386806	99.3	0.58736369579563
12	387137	99.4	-0.0028358721639776
12	387468	99.5	0.035083072329876
12	387799	99.6	-0.88072734470479
12	388130	99.7	0.84683118807153
12	388461	99.8	-0.98925621425735
12	388792	99.9	0.17959884495941
12	389123	100	0.12681059397291
12	389454	100.1	0.19920719906221
12	389785	100.2	0.41379545752427
12	390116	100.3	-0.27703043380754
12	390447	100.4	-0.0097241754410859
12	390778	100.5	-0.1345208076993
12	391109	100.6	0.15970146127511
12	391440	100.7	-0.23309872802347
12	391771	100.8	-0.37706825556231
12	392102	100.9	0.50880619911478
12	392433	101	-0.21175265961794
12	392764	101.1	0.39482797803359
12	393095	101.2	-0.21609881427139
12	393426	101.3	-0.31700296746568
12	393757	101.4	0.51815723024774
12	394088	101.5	-0.4193884085398
12	394419	101.6	-0.28908877596262
12	394750	101.7	0.79403530380223
12	395081	101.8	-0.52871280242687
12	395412	101.9	-0.1920863075182
12	395743	102	0.12198651512154
12	396074	102.1	-0.15950306341981
12	396405	102.2	0.47464572670869
12	396736	102.3	-0.63573461908383
12	397067	102.4	0.84639905297664
12	397398	102.5	0.038518892857269
12	397729	102.6	-0.95671546065716
12	398060	102.7	0.72025006718469
12	398391	102.8	0.17434546772854
12	398722	102.9	-0.63266074371057
12	399053	103	0.21717125312424
12	399384	103.1	0.41404878359753
12	399715	103.2	0.1068427067716
12	400046	103.3	-0.41098527894356
12	400377	103.4	0.59209949776996
12	400708	103.5	-0.86878901752645
12	401039	103.6	0.41619247843045
12	401370	103.7	-0.71082463068887
12	401701	103.8	0.29439478830902
12	402032	103.9	0.65452180097342
12	402363	104	-0.030663727573099
12	402694	104.1	-0.1932118082652
12	403025	104.2	-0.51499125272965
12	403356	104.3	-0.10839087599891
12	403687	104.4	0.33031264890454
12	404018	104.5	-0.074844349385259
12	404349	104.6	0.034635321679524
12	404680	104.7	-0.091131374938414
12	405011	104.8	0.63017635457218
12	405342	104.9	0.14397447514348
12	405673	105	-1.0572595731588
12	406004	105.1	0.99608905145431
12	406335	105.2	-0.72477572006171
12	406666	105.3	0.16147604167926
12	406997	105.4	0.047408556379374
12	407328	105.5	-0.20002910376061
12	407659	105.6	0.36046237223783
12	407990	105.7	0.32128638022112
12	408321	105.8	-1.0735318612307
12	408652	105.9	0.37598954397254
12	408983	106	0.18054765725974
12	409314	106.1	-0.26207866976037
12	409645	106.2	0.98991065134761
12	409976	106.3	-0.70065832233524
12	410307	106.4	-0.15616169050336
12	410638	106.5	0.80826200041923
12	410969	106.6	-0.045725364703699
12	411300	106.7	-0.033406466362074
12	411631	106.8	-0.22248761742375
12	411962	106.9	0.19886938959825
12	412293	107	-0.34017155379988
12	412624	107.1	-0.22721766605972
12	412955	107.2	-0.54944711492862
12	413286	107.3	0.89018221227452
12	413617	107.4	0.25467098695227
12	413948	107.5	-0.88066245862283
12	414279	107.6	0.88688932927326
12	414610	107.7	-0.05657148591709
12	414941	107.8	-0.49466623268092
12	415272	107.9	0.050135773443643
12	415603	108	0.29122798386961
12	415934	108.1	-0.47908692646306
12	416265	108.2	0.23686897889711
12	416596	108.3	0.54863608067389
12	416927	108.4	-0.52546973114367
12	417258	108.5	-0.037353832763642
12	417589	108.6	-0.55601448647209
12	417920	108.7	0.028889965009853
12	418251	108.8	0.20397563506851
12	418582	108.9	-0.2664794790093
12	418913	109	0.95115927373989
12	419244	109.1	0.21865888729227
12	419575	109.2	-1.071477396111
12	419906	109.3	0.040179772488784
12	420237	109.4	0.14774716289249
12	420568	109.5	-0.34181827316061
12	420899	109.6	0.22435751715673
12	421230	109.7	-0.080618109228077
12	421561	109.8	0.87450817392675
12	421892	109.9	-0.2097468375694
12	422223	110	-0.48759438435084
12	422554	110.1	-0.063750841584991
12	422885	110.2	-0.16932906974105
12	423216	110.3	0.33051716967019
12	423547	110.4	0.40755904912949
12	423878	110.5	-0.36078833451029
12	424209	110.6	0.3398291075835
12	424540	110.7	-0.09541237473023
12	424871	110.8	-0.56763799423351
12	425202	110.9	0.59410901493393
12	425533	111	-0.51938937539237
12	425864	111.1	-0.17940292060374
12	426195	111.2	1.0877269205404
12	426526	111.3	-0.52509395109954
12	426857	111.4	-0.55698207733222
12	427188	111.5	0.33326484546997
12	427519	111.6	0.28324991634584
12	427850	111.7	-0.093984590354381
12	428181	111.8	0.59928973084315
12	428512	111.9	-1.2030947338557
12	428843	112	0.39221919777336
12	429174	112.1	-0.079264385462743
12	429505	112.2	0.84604961334264
12	429836	112.3	-0.70434115261307
12	430167	112.4	-0.28363912508357
12	430498	112.5	0.075907298922537
12	430829	112.6	-0.052083109272658
11	21	0.2	15.540245453268
11	40	0.3	15.53846706942
11	59	0.4	15.539857274157
11	78	0.5	15.568936719468
11	97	0.6	15.600030377931
11	116	0.7	15.611320501317
11	135	0.8	15.642627313156
11	154	0.9	15.614554681713
11	173	1	15.587903535485
11	192	1.1	15.54441806556
11	211	1.2	15.587602967718
11	230	1.3	15.598937976889
11	249	1.4	15.541309760052
11	268	1.5	15.606138498988
11	287	1.6	15.565737656048
11	306	1.7	15.602128600143
11	325	1.8	15.525569829938
11	344	1.9	15.631754398935
11	363	2	15.536888657361
11	382	2.1	15.588430954798
11	443	2.2	15.548531207165
11	504	2.3	15.566810267791
11	565	2.4	15.52719304058
11	626	2.5	15.596093947655
11	687	2.6	15.549349620754
11	748	2.7	15.576103586718
11	809	2.8	15.569707384889
11	870	2.9	15.569798580175
11	931	3	15.56136336128
11	992	3.1	15.593185846154
11	1053	3.2	15.642170689355
11	1114	3.3	15.562817076419
11	1175	3.4	15.633239581215
11	1236	3.5	15.602717599457
11	1297	3.6	15.592981803259
11	1358	3.7	15.636734175114
11	1419	3.8	15.629029763548
11	1480	3.9	15.617072091829
11	1541	4	15.618224673553
11	1602	4.1	15.635651231909
11	1729	4.2	15.602065728456
11	1856	4.3	15.541067162133
11	1983	4.4	15.589075344219
11	2110	4.5	15.553895734425
11	2237	4.6	15.634374446603
11	2364	4.7	15.608662187471
11	2491	4.8	15.559978624485
11	2618	4.9	15.58197775312
11	2745	5	15.529191494281
11	2872	5.1	15.632866277939
11	2999	5.2	15.626185122749
11	3126	5.3	15.542237796318
11	3253	5.4	15.614898964076
11	3380	5.5	15.617662091833
11	3507	5.6	15.575607252805
11	3634	5.7	15.591873700791
11	3761	5.8	15.611333196284
11	3888	5.9	15.535456583891
11	4015	6	15.559970893103
11	4142	6.1	15.525709126831
11	4359	6.2	15.61079527389
11	4576	6.3	15.594260069183
11	4793	6.4	15.573186540816
11	5010	6.5	15.593915603517
11	5227	6.6	15.534049963434
11	5444	6.7	15.530467260312
11	5661	6.8	15.537143612124
11	5878	6.9	15.539758930451
11	6095	7	15.64100829127
11	6312	7.1	15.53737029762
11	6529	7.2	15.60320285232
11	6746	7.3	15.642936061814
11	6963	7.4	15.620889791248
11	7180	7.5	15.64586093989
11	7397	7.6	15.619073934061
11	7614	7.7	15.573311702893
11	7831	7.8	15.622720311971
11	8048	7.9	15.586240355759
11	8265	8	15.593525838242
11	8482	8.1	15.626651521928
11	8813	8.2	15.533432732264
11	9144	8.3	15.647315369383
11	9475	8.4	15.541963700505
11	9806	8.5	15.625867327384
11	10137	8.6	15.55498874567
11	10468	8.7	15.623028889766
11	10799	8.8	15.573718035107
11	11130	8.9	15.556808241613
11	11461	9	15.586552683001
11	11792	9.1	15.532516433862
11	12123	9.2	15.612020821008
11	12454	9.3	15.562910849508
11	12785	9.4	15.586868412849
11	13116	9.5	15.619878788684
11	13447	9.6	15.536342563913
11	13778	9.7	15.604859643474
11	14109	9.8	15.566868572857
11	14440	9.9	15.583528532295
11	14771	10	15.525091494913
11	15102	10.1	15.597058648195
11	15433	10.2	15.648514430835
11	15764	10.3	15.562633785617
11	16095	10.4	15.555484245699
11	16426	10.5	15.615924640771
11	16757	10.6	15.600609496322
11	17088	10.7	15.54876959841
11	17419	10.8	15.614533153397
11	17750	10.9	15.546026535179
11	18081	11	15.525273665285
11	18412	11.1	15.580296925071
11	18743	11.2	15.525667255495
11	19074	11.3	15.535334616054
11	19405	11.4	15.560296747379
11	19736	11.5	15.618797364417
11	20067	11.6	15.573172058796
11	20398	11.7	15.543300274431
11	20729	11.8	15.598203546361
11	21060	11.9	15.645670398574
11	21391	12	15.625919797812
11	21722	12.1	15.536966490694
11	22053	12.2	15.645700303433
11	22384	12.3	15.621249081446
11	22715	12.4	15.569597565713
11	23046	12.5	15.5669609719
11	23377	12.6	15.612508194598
11	23708	12.7	15.582749893288
11	24039	12.8	15.596068606875
11	24370	12.9	15.619758491216
11	24701	13	15.532356715524
11	25032	13.1	15.526376160912
11	25363	13.2	15.53537637216
11	25694	13.3	15.619085058575
11	26025	13.4	15.61909356294
11	26356	13.5	15.527772739844
11	26687	13.6	15.591263181395
11	27018	13.7	15.63293238706
11	27349	13.8	15.578904963429
11	27680	13.9	15.578229824884
11	28011	14	15.584237370032
11	28342	14.1	15.606644029191
11	28673	14.2	15.592002384034
11	29004	14.3	15.56909002508
11	29335	14.4	15.535699480707
11	29666	14.5	15.648975066657
11	29997	14.6	15.597227498021
11	30328	14.7	15.622732506306
11	30659	14.8	15.526648066835
11	30990	14.9	15.524839859155
11	31321	15	15.606584566496
11	31652	15.1	15.559785666694
11	31983	15.2	15.534695098507
11	32314	15.3	15.584646300722
11	32645	15.4	15.524122766098
11	32976	15.5	15.52622144914
11	33307	15.6	15.531976173175
11	33638	15.7	15.55945979117
11	33969	15.8	15.531994715494
11	34300	15.9	15.610421972461
11	34631	16	15.522661499612
11	34962	16.1	15.571057580952
11	35293	16.2	15.602169414612
11	35624	16.3	15.637415486209
11	35955	16.4	15.520093861592
11	36286	16.5	15.523090664055
11	36617	16.6	15.630800874848
11	36948	16.7	15.549499137995
11	37279	16.8	15.553098250602
11	37610	16.9	15.600556425711
11	37941	17	15.637356460129
11	38272	17.1	15.538254491528
11	38603	17.2	15.522604898422
11	38934	17.3	15.597506943305
11	39265	17.4	15.566905702774
11	39596	17.5	15.543087124415
11	39927	17.6	15.597345370629
11	40258	17.7	15.635728020088
11	40589	17.8	15.636571239834
11	40920	17.9	15.581856098829
11	41251	18	15.540439007974
11	41582	18.1	15.6212184619
11	41913	18.2	15.53868409619
11	42244	18.3	15.630062045474
11	42575	18.4	15.548407651924
11	42906	18.5	15.598966058313
11	43237	18.6	15.602609198154
11	43568	18.7	15.585523861402
11	43899	18.8	15.629220112783
11	44230	18.9	15.570327321654
11	44561	19	15.584007379091
11	44892	19.1	15.61526308571
11	45223	19.2	15.60862964394
11	45554	19.3	15.5355118443
11	45885	19.4	15.547055656491
11	46216	19.5	15.530041640885
11	46547	19.6	15.540249454968
11	46878	19.7	15.636686212043
11	47209	19.8	15.636009698242
11	47540	19.9	15.52313509688
11	47871	20	15.587158839752
11	48202	20.1	15.544782553799
11	48533	20.2	15.549904265665
11	48864	20.3	15.635384448175
11	49195	20.4	15.581502032038
11	49526	20.5	15.622927076714
11	49857	20.6	15.629310988924
11	50188	20.7	15.544447986854
11	50519	20.8	15.557043162209
11	50850	20.9	15.588491412946
11	51181	21	15.582967014767
11	51512	21.1	15.53046403659
11	51843	21.2	15.603330613903
11	52174	21.3	15.571972327484
11	52505	21.4	15.586054009828
11	52836	21.5	15.608849466594
11	53167	21.6	15.554873255545
11	53498	21.7	15.54657325245
11	53829	21.8	15.537427088984
11	54160	21.9	15.569247997289
11	54491	22	15.595830071978
11	54822	22.1	15.536116509596
11	55153	22.2	15.634933198637
11	55484	22.3	15.537748816009
11	55815	22.4	15.609105471838
11	56146	22.5	15.577896142672
11	56477	22.6	15.621806867023
11	56808	22.7	15.588173414997
11	57139	22.8	15.544195582017
11	57470	22.9	15.598619678742
11	57801	23	15.544024079081
11	58132	23.1	15.626626612619
11	58463	23.2	15.534371772001
11	58794	23.3	15.608096639852
11	59125	23.4	15.5357074664
11	59456	23.5	15.520024885156
11	59787	23.6	15.573161500536
11	60118	23.7	15.530101194263
11	60449	23.8	15.549740689823
11	60780	23.9	15.554209088902
11	61111	24	15.561971651257
11	61442	24.1	15.644283193788
11	61773	24.2	15.526022158863
11	62104	24.3	15.64727649152
11	62435	24.4	15.552078784353
11	62766	24.5	15.548824098427
11	63097	24.6	15.633183750466
11	63428	24.7	15.556479422376
11	63759	24.8	15.581644835416
11	64090	24.9	15.646844547931
11	64421	25	15.524003235984
11	64752	25.1	15.542916702258
11	65083	25.2	15.577453338809
11	65414	25.3	15.583541167513
11	65745	25.4	15.630236459947
[...]
58	236701	63	388.996107109
58	237332	63.1	389.01480151987
58	237963	63.2	389.03348522264
58	238594	63.3	389.05226050759
58	239225	63.4	389.07094224472
58	239856	63.5	389.08968023837
58	240487	63.6	389.10839569899
58	241118	63.7	389.12708082489
58	241749	63.8	389.14580446933
58	242380	63.9	389.16453929565
58	243011	64	389.18323570229
58	243642	64.1	389.20197856995
58	244273	64.2	389.22069056856
58	244904	64.3	389.23945926059
58	245535	64.4	389.25814417593
58	246166	64.5	389.27690579574
58	246797	64.6	389.29568266798
58	247428	64.7	389.31445379026
58	248059	64.8	389.33317560508
58	248690	64.9	389.35187983618
58	249321	65	389.37065102051
58	249952	65.1	389.38939458712
58	250583	65.2	389.40805489459
58	251214	65.3	389.42678546222
58	251845	65.4	389.44269625415
58	252476	65.5	389.45897233212
58	253107	65.6	389.47524387693
58	253738	65.7	389.49152303405
58	254369	65.8	389.50775401459
58	255000	65.9	389.52400167307
58	255631	66	389.54025103779
58	256262	66.1	389.55649745188
58	256893	66.2	389.5727907016
58	257524	66.3	389.58904573982
58	258155	66.4	389.60533989923
58	258786	66.5	389.62159654839
58	259417	66.6	389.63790953556
58	260048	66.7	389.65418066385
58	260679	66.8	389.6704213106
58	261310	66.9	389.68664684411
58	261941	67	389.70294919515
58	262572	67.1	389.71917984471
58	263203	67.2	389.73546752659
58	263834	67.3	389.75171255738
58	264465	67.4	389.76801500887
58	265096	67.5	389.78424020704
58	265727	67.6	389.8004968484
58	266358	67.7	389.81677445718
58	266989	67.8	389.8330686459
58	267620	67.9	389.84932838806
58	268251	68	389.86558513711
58	268882	68.1	389.8818377271
58	269513	68.2	389.8980733148
58	270144	68.3	389.91431895629
58	270775	68.4	389.93062500679
58	271406	68.5	389.94690568325
58	272037	68.6	389.96313058337
58	272668	68.7	389.97941050971
58	273299	68.8	389.99564693794
58	273930	68.9	390.01190388274
58	274561	69	390.02812131746
58	275180	69.1	390.04434193664
58	275799	69.2	390.0605575991
58	276418	69.3	390.07684369903
58	277037	69.4	390.0930608789
58	277656	69.5	390.10937739179
58	278275	69.6	390.12564474376
58	278894	69.7	390.14189582352
58	279513	69.8	390.15817692873
58	280132	69.9	390.17443658548
58	280751	70	390.19072594952
58	281346	70.1	390.20694791715
58	281941	70.2	390.22321451585
58	282536	70.3	390.2394529479
58	283131	70.4	390.25567074041
58	283726	70.5	390.27197270312
58	284321	70.6	390.28819867761
58	284916	70.7	390.30448410576
58	285511	70.8	390.32076482189
58	286106	70.9	390.33699648156
58	286701	71	390.35328499732
58	287260	71.1	390.36957322355
58	287819	71.2	390.3857939729
58	288378	71.3	390.40208507231
58	288937	71.4	390.41834522149
58	289496	71.5	390.43456408796
58	290055	71.6	390.45087338923
58	290614	71.7	390.46713437912
58	291173	71.8	390.48237839479
58	291732	71.9	390.49841642635
58	292279	72	390.51449343774
58	292790	72.1	390.53052446
58	293301	72.2	390.54655975622
58	293812	72.3	390.56260324771
58	294323	72.4	390.57861267509
58	294834	72.5	390.59460513597
58	295345	72.6	390.61061538159
58	295856	72.7	390.62662991668
58	296367	72.8	390.64264574407
58	296878	72.9	390.65871374642
58	297377	73	390.67477085336
58	297828	73.1	390.69083444446
58	298279	73.2	390.70685931656
58	298730	73.3	390.7229150317
58	299181	73.4	390.73897146804
58	299632	73.5	390.75497275148
58	300083	73.6	390.77096376647
58	300534	73.7	390.78697090351
58	300985	73.8	390.80296942614
58	301436	73.9	390.81903234173
58	301887	74	390.83505217079
58	302290	74.1	390.85111843436
58	302693	74.2	390.86710448706
58	303096	74.3	390.88316929511
58	303499	74.4	390.89916033192
58	303902	74.5	390.9151604613
58	304305	74.6	390.93117285722
58	304708	74.7	390.94721218466
58	305111	74.8	390.96327920253
58	305514	74.9	390.97935580269
58	305905	75	390.9954249832
58	306272	75.1	391.01149192285
58	306639	75.2	391.02750738312
58	307006	75.3	391.04353612032
58	307373	75.4	391.05953610041
58	307740	75.5	391.07557856741
58	308107	75.6	391.09157612963
58	308474	75.7	391.1076210108
58	308841	75.8	391.12363970116
58	309208	75.9	391.13971906738
58	309563	76	391.15579749821
58	309906	76.1	391.17182484108
58	310249	76.2	391.18789750176
58	310592	76.3	391.20395674006
58	310935	76.4	391.22003352787
58	311278	76.5	391.23604095743
58	311621	76.6	391.25211025785
58	311964	76.7	391.26811651342
58	312307	76.8	391.28418493779
58	312650	76.9	391.30021272883
58	312993	77	391.31624931331
58	313324	77.1	391.33233210302
58	313655	77.2	391.3483835338
58	313986	77.3	391.36446061129
58	314317	77.4	391.38051552853
58	314648	77.5	391.39655167042
58	314979	77.6	391.41259794747
58	315310	77.7	391.42863605115
58	315641	77.8	391.44471422627
58	315972	77.9	391.46070464381
58	316303	78	391.47668829512
58	316634	78.1	391.4927314701
58	316965	78.2	391.5087344442
58	317296	78.3	391.52475482567
58	317627	78.4	391.54079244965
58	317958	78.5	391.55684563485
58	318289	78.6	391.57290901235
58	318620	78.7	391.58898331466
58	318951	78.8	391.60502668076
58	319282	78.9	391.62107880991
58	319613	79	391.63708097853
58	319944	79.1	391.65307130298
58	320275	79.2	391.66912843777
58	320606	79.3	391.68511594548
58	320937	79.4	391.70111831787
58	321268	79.5	391.71714514964
58	321599	79.6	391.73314638036
58	321930	79.7	391.74923222804
58	322261	79.8	391.76526314645
58	322592	79.9	391.78134869492
58	322923	80	391.79734815857
58	323254	80.1	391.81333486089
58	323585	80.2	391.82942025014
58	323916	80.3	391.84549474128
58	324247	80.4	391.86156012979
58	324578	80.5	391.87756937611
58	324909	80.6	391.8935949884
58	325240	80.7	391.90962391535
58	325571	80.8	391.92562647057
58	325902	80.9	391.94165499744
58	326233	81	391.9576627995
58	326564	81.1	391.97366857828
58	326895	81.2	391.98970443287
58	327226	81.3	392.00569713506
58	327557	81.4	392.02175196598
58	327888	81.5	392.03782259016
58	328219	81.6	392.0538318178
58	328550	81.7	392.06987742521
58	328881	81.8	392.08587465849
58	329212	81.9	392.1019305823
58	329543	82	392.1179473873
58	329874	82.1	392.13400527221
58	330205	82.2	392.15005795584
58	330536	82.3	392.16613555254
58	330867	82.4	392.18217689399
58	331198	82.5	392.1985261278
58	331529	82.6	392.2170190647
58	331860	82.7	392.23550095747
58	332191	82.8	392.25389635897
58	332522	82.9	392.2723526457
58	332853	83	392.2907958938
58	333184	83.1	392.3092155815
58	333515	83.2	392.32762352985
58	333846	83.3	392.34602819324
58	334177	83.4	392.36450356159
58	334508	83.5	392.38295552209
58	334839	83.6	392.40136789853
58	335170	83.7	392.41986033402
58	335501	83.8	392.43834951916
58	335832	83.9	392.45679914928
58	336163	84	392.4751992596
58	336494	84.1	392.49367860006
58	336825	84.2	392.51211320448
58	337156	84.3	392.53056247419
58	337487	84.4	392.54895678767
58	337818	84.5	392.56741810399
58	338149	84.6	392.58580501887
58	338480	84.7	392.60423787646
58	338811	84.8	392.62270658644
58	339142	84.9	392.64114888212
58	339473	85	392.65956148143
58	339804	85.1	392.67798798793
58	340135	85.2	392.69636426912
58	340466	85.3	392.71474786887
58	340797	85.4	392.73322459175
58	341128	85.5	392.75166810342
58	341459	85.6	392.77006315854
58	341790	85.7	392.78846017206
58	342121	85.8	392.80689237269
58	342452	85.9	392.82527509196
58	342783	86	392.84374895628
58	343114	86.1	392.86220737664
58	343445	86.2	392.88062778813
58	343776	86.3	392.89909053655
58	344107	86.4	392.91754823838
58	344438	86.5	392.93593392938
58	344769	86.6	392.95439035039
58	345100	86.7	392.97278825168
58	345431	86.8	392.99028754452
58	345762	86.9	393.01074273507
58	346093	87	393.03109715383
58	346424	87.1	393.05152196761
58	346755	87.2	393.07199409859
58	347086	87.3	393.09243972488
58	347417	87.4	393.11285696257
58	347748	87.5	393.13331097856
58	348079	87.6	393.15375872006
58	348410	87.7	393.17420590566
58	348741	87.8	393.194635989
58	349072	87.9	393.21503692621
58	349403	88	393.23544348879
58	349734	88.1	393.25587098933
58	350065	88.2	393.27625838538
58	350396	88.3	393.2966356573
58	350727	88.4	393.31708660875
58	351058	88.5	393.3375140388
58	351389	88.6	393.35787215258
58	351720	88.7	393.37825690862
58	352051	88.8	393.39867966879
58	352382	88.9	393.4191511862
58	352713	89	393.43955881047
58	353044	89.1	393.46003898632
58	353375	89.2	393.48043869738
58	353706	89.3	393.50083526586
58	354037	89.4	393.52119383789
58	354368	89.5	393.54164877727
58	354699	89.6	393.56205734279
58	355030	89.7	393.58247218976
58	355361	89.8	393.60295591914
58	355692	89.9	393.62339677132
58	356023	90	393.64379248975
58	356354	90.1	393.66417546608
58	356685	90.2	393.68454027204
58	357016	90.3	393.70495890676
58	357347	90.4	393.72533239314
58	357678	90.5	393.7458027231
58	358009	90.6	393.76619689379
58	358340	90.7	393.78655168845
58	358671	90.8	393.80692909125
58	359002	90.9	393.82736494859
58	359333	91	393.84777881943
58	359664	91.1	393.86817873227
58	359995	91.2	393.88863848111
58	360326	91.3	393.90906736547
58	360657	91.4	393.92945381892
58	360988	91.5	393.94993295989
58	361319	91.6	393.97040562463
58	361650	91.7	393.99077389163
58	361981	91.8	394.0112428549
58	362312	91.9	394.03167606103
58	362643	92	394.05215510851
58	362974	92.1	394.07255355273
58	363305	92.2	394.09303445387
58	363636	92.3	394.11350560976
58	363967	92.4	394.13390948142
58	364298	92.5	394.15437968286
58	364629	92.6	394.17484480687
58	364960	92.7	394.19521317764
58	365291	92.8	394.21565482157
58	365622	92.9	394.23601829866
58	365953	93	394.25639696322
58	366284	93.1	394.27680415965
58	366615	93.2	394.29724754942
58	366946	93.3	394.3176947451
58	367277	93.4	394.33809139994
58	367608	93.5	394.35856615656
58	367939	93.6	394.37902011636
58	368270	93.7	394.39937823376
58	368601	93.8	394.41978310602
58	368932	93.9	394.44020549285
58	369263	94	394.45869047092
58	369594	94.1	394.47724902965
58	369925	94.2	394.49576226701
58	370256	94.3	394.5143470454
58	370587	94.4	394.53295278261
58	370918	94.5	394.55155332015
58	371249	94.6	394.57008158486
58	371580	94.7	394.58864707639
58	371911	94.8	394.60722613756
58	372242	94.9	394.62573613179
58	372573	95	394.64423812003
58	372904	95.1	394.66277838965
58	373235	95.2	394.68137109298
58	373566	95.3	394.699883971
58	373897	95.4	394.71838460925
58	374228	95.5	394.73687778153
58	374559	95.6	394.75541629763
58	374890	95.7	394.77400725438
58	375221	95.8	394.79249697742
58	375552	95.9	394.81102402376
58	375883	96	394.82961991287
58	376214	96.1	394.84813804807
58	376545	96.2	394.86666070529
58	376876	96.3	394.88520901729
58	377207	96.4	394.90380785602
58	377538	96.5	394.92233131561
58	377869	96.6	394.94093621823
58	378200	96.7	394.95951974396
58	378531	96.8	394.97812125516
58	378862	96.9	394.99662290962
58	379193	97	395.01513888372
58	379524	97.1	395.03372145652
58	379855	97.2	395.05227280797
58	380186	97.3	395.07081374813
58	380517	97.4	395.08936984013
58	380848	97.5	395.10797011755
58	381179	97.6	395.12653743077
58	381510	97.7	395.14504799305
58	381841	97.8	395.16357557963
58	382172	97.9	395.18207325383
58	382503	98	395.20059244182
58	382834	98.1	395.21908372797
58	383165	98.2	395.2376765119
58	383496	98.3	395.25625590691
58	383827	98.4	395.27482211656
58	384158	98.5	395.29340149619
58	384489	98.6	395.31195634662
58	384820	98.7	395.33056168618
58	385151	98.8	395.34907433035
58	385482	98.9	395.36766691278
58	385813	99	395.38624159777
58	386144	99.1	395.40481229807
58	386475	99.2	395.42331926399
58	386806	99.3	395.44189213376
58	387137	99.4	395.46033124358
58	387468	99.5	395.47861078604
58	387799	99.6	395.49692105589
58	388130	99.7	395.51513505404
58	388461	99.8	395.53335775183
58	388792	99.9	395.55165805603
58	389123	100	395.5698689581
58	389454	100.1	395.58812037736
58	389785	100.2	395.60640365016
58	390116	100.3	395.62470133135
58	390447	100.4	395.64291150334
58	390778	100.5	395.66112486385
58	391109	100.6	395.67943913855
58	391440	100.7	395.69766472387
58	391771	100.8	395.71597516402
58	392102	100.9	395.73428121467
58	392433	101	395.75255684678
58	392764	101.1	395.77084915426
58	393095	101.2	395.78906055082
58	393426	101.3	395.80730133447
58	393757	101.4	395.8255463693
58	394088	101.5	395.8437737092
58	394419	101.6	395.86200077313
58	394750	101.7	395.88029770481
58	395081	101.8	395.89851698445
58	395412	101.9	395.91674601409
58	395743	102	395.93503697489
58	396074	102.1	395.95330870837
58	396405	102.2	395.96672324976
58	396736	102.3	395.92903078281
58	397067	102.4	395.89123274537
58	397398	102.5	395.85363126352
58	397729	102.6	395.8158216942
58	398060	102.7	395.77822192216
58	398391	102.8	395.74050333725
58	398722	102.9	395.70271096027
58	399053	103	395.60650250121
58	399384	103.1	395.42005206876
58	399715	103.2	395.23435470045
58	400046	103.3	395.04875672407
58	400377	103.4	394.86330943562
58	400708	103.5	394.67773274126
58	401039	103.6	394.49217454143
58	401370	103.7	394.15133600263
58	401701	103.8	393.79063743247
58	402032	103.9	393.42934304139
58	402363	104	393.06774916978
58	402694	104.1	392.70566649027
58	403025	104.2	392.34458125409
58	403356	104.3	391.80873016406
58	403687	104.4	391.24630201445
58	404018	104.5	390.68713795666
58	404349	104.6	390.12707485418
58	404680	104.7	389.56688284196
58	405011	104.8	389.00441893964
58	405342	104.9	388.4445220099
58	405673	105	387.73016269891
58	406004	105.1	386.91440615568
58	406335	105.2	386.09448711944
58	406666	105.3	385.27809717453
58	406997	105.4	384.46009072191
58	407328	105.5	383.64311718147
58	407659	105.6	382.82637910671
58	407990	105.7	381.93069423156
58	408321	105.8	381.02224129852
58	408652	105.9	380.11204158383
58	408983	106	379.20335190052
58	409314	106.1	378.29484351799
58	409645	106.2	377.384064923
58	409976	106.3	376.47273259484
58	410307	106.4	375.47760827307
58	410638	106.5	374.40122098473
58	410969	106.6	373.32752093142
58	411300	106.7	372.25389130404
58	411631	106.8	371.18216897617
58	411962	106.9	370.10949111609
58	412293	107	369.03295727898
58	412624	107.1	367.91517757366
58	412955	107.2	366.74249715799
58	413286	107.3	365.57190114303
58	413617	107.4	364.4000717146
58	413948	107.5	363.2311846963
58	414279	107.6	362.05766334663
58	414610	107.7	360.88288850863
58	414941	107.8	359.64550772066
58	415272	107.9	358.34988137463
58	415603	108	357.05473367287
58	415934	108.1	355.75878076186
58	416265	108.2	354.46022631427
58	416596	108.3	353.16104310903
58	416927	108.4	351.86093199716
58	417258	108.5	350.43401482002
58	417589	108.6	348.97199340704
58	417920	108.7	347.50719013529
58	418251	108.8	346.04278608942
58	418582	108.9	344.57192490234
58	418913	109	343.10814069521
58	419244	109.1	341.63873895108
58	419575	109.2	340.05833159067
58	419906	109.3	338.47308782368
58	420237	109.4	336.89256997302
58	420568	109.5	335.30903275572
58	420899	109.6	333.72170395216
58	421230	109.7	332.14178461546
58	421561	109.8	330.50319692428
58	421892	109.9	328.80970886061
58	422223	110	327.11026833703
58	422554	110.1	325.40884664052
58	422885	110.2	323.70631885863
58	423216	110.3	322.01167911354
58	423547	110.4	320.31847895435
58	423878	110.5	318.55647755342
58	424209	110.6	316.75893086079
58	424540	110.7	314.9611288146
58	424871	110.8	313.15913166552
58	425202	110.9	311.36193379363
58	425533	111	309.55551033504
58	425864	111.1	307.7536262326
58	426195	111.2	305.88798395539
58	426526	111.3	304.01305410182
58	426857	111.4	302.1332679346
58	427188	111.5	300.25879523237
58	427519	111.6	298.38783107901
58	427850	111.7	296.51623298203
58	428181	111.8	294.63441665229
58	428512	111.9	292.70551651646
58	428843	112	290.78418326867
58	429174	112.1	288.86100907952
58	429505	112.2	286.93916846505
58	429836	112.3	285.01837128265
58	430167	112.4	283.09036424142
58	430498	112.5	281.16043368928
58	430829	112.6	279.20152127779
58	431160	112.7	277.24553121801
58	431434	112.8	275.28121665581
58	431708	112.9	273.32065972736
58	431982	113	271.35225207516
58	432256	113.1	269.38479135672
58	432530	113.2	267.42041317859
58	432804	113.3	265.4493661442
58	433078	113.4	263.48191639136
58	433352	113.5	261.52232674305
58	433626	113.6	259.55660765842
58	433900	113.7	257.59265050735
58	434174	113.8	255.62685320686
58	434448	113.9	253.66034436901
58	434722	114	251.69562167934
58	434996	114.1	249.73047649999
58	435270	114.2	247.76093607565
58	435544	114.3	245.80074308606
58	435818	114.4	243.83309784045
58	436092	114.5	241.86792785274
58	436366	114.6	239.90779029091
58	436640	114.7	237.94545918775
58	436869	114.8	235.9845609872
58	437098	114.9	234.02342623725
58	437327	115	232.05522964024
58	437556	115.1	230.08652992563
58	437785	115.2	228.12135979276
58	438014	115.3	226.15607158802
58	438243	115.4	224.18524662972
58	438472	115.5	222.22364227094
58	438701	115.6	220.25230157961
58	438930	115.7	218.28088249666
58	439159	115.8	216.32017161022
58	439388	115.9	214.37693346626
58	439617	116	212.43682032929
58	439846	116.1	210.50197800459
58	440075	116.2	208.56882108169
58	440304	116.3	206.62496038153
58	440533	116.4	204.68460862481
58	440762	116.5	202.74431138187
58	440991	116.6	200.80601117117
58	441220	116.7	198.87178451758
58	441416	116.8	196.95635672523
58	441612	116.9	195.0727270656
58	441808	117	193.18243074931
58	442004	117.1	191.29512000334
58	442200	117.2	189.41227366949
58	442396	117.3	187.52173538337
58	442592	117.4	185.63452955059
58	442788	117.5	183.74693101311
58	442984	117.6	181.85670566826
58	443180	117.7	179.98801076882
58	443376	117.8	178.15383155981
58	443572	117.9	176.32616206269
58	443768	118	174.49217420666
58	443964	118.1	172.65498718881
58	444160	118.2	170.82625003408
58	444356	118.3	168.99677729557
58	444552	118.4	167.16242760197
58	444748	118.5	165.32827387715
58	444944	118.6	163.53449393191
58	445140	118.7	161.7824038597
58	445315	118.8	160.03574392764
58	445490	118.9	158.29018901276
58	445665	119	156.54062783513
58	445840	119.1	154.79854559909
58	446015	119.2	153.05246080941
58	446133	119.3	151.2999810812
58	446251	119.4	149.55557745289
58	446369	119.5	147.86041877319
58	446487	119.6	146.17606647287
58	446605	119.7	144.48874972052
58	446723	119.8	142.80178258003
58	446841	119.9	141.11093759429
58	446959	120	139.41953309069
58	447077	120.1	137.7346502726
58	447195	120.2	136.04687307154
58	447313	120.3	134.372237708
58	447431	120.4	132.72439761255
58	447549	120.5	131.08155016176
58	447667	120.6	129.43596172192
58	447785	120.7	127.78674316071
58	447894	120.8	126.13700300385
58	448003	120.9	124.48927754328
58	448112	121	122.84702534766
58	448221	121.1	121.20111350533
58	448330	121.2	119.5594148158
58	448394	121.3	117.95261667274
58	448458	121.4	116.35390925009
58	448522	121.5	114.75542532871
58	448586	121.6	113.14817559531
58	448650	121.7	111.54079849983
58	448714	121.8	109.93523915777
58	448778	121.9	108.33531441408
58	448842	122	106.73264570219
58	448906	122.1	105.14451540001
58	448970	122.2	103.59054481139
58	449034	122.3	102.0354501767
58	449098	122.4	100.47390553844
58	449162	122.5	98.916247769978
58	449226	122.6	97.36059299588
58	449290	122.7	95.801568786816
58	449354	122.8	94.243753940555
58	449418	122.9	92.681458342544
58	449482	123	91.136793848884
58	449546	123.1	89.626015037612
58	449610	123.2	88.112428590938
58	449641	123.3	86.60114446541
58	449672	123.4	85.090513757588
58	449703	123.5	83.58189255879
58	449734	123.6	82.073578640585
58	449765	123.7	80.561624770596
58	449796	123.8	79.050946350864
58	449827	123.9	77.543204480195
58	449858	124	76.043358257176
58	449889	124.1	74.536955248623
58	449920	124.2	73.036700767168
58	449951	124.3	71.535071892619
58	449982	124.4	70.037805529128
58	450013	124.5	68.532839559195
58	450044	124.6	67.021200944757
58	450075	124.7	65.481690766275
58	450106	124.8	63.938747694575
58	450137	124.9	62.398810675687
58	450168	125	60.855800887831
58	450199	125.1	59.314541309746
58	450230	125.2	57.775273643382
58	450240	125.3	56.227736609906
58	450250	125.4	54.686982124839
58	450260	125.5	53.144384382916
58	450270	125.6	51.58799984484
58	450280	125.7	50.029240867303
58	450290	125.8	48.468895870433
58	450300	125.9	46.915948187263
58	450310	126	45.363596108606
58	450320	126.1	43.808738009162
58	450330	126.2	42.256143125493
58	450340	126.3	40.698936569422
58	450350	126.4	39.144806806772
58	450360	126.5	37.593908149903
58	450370	126.6	36.041604655028
58	450380	126.7	34.489525497589
58	450390	126.8	32.929384692473
58	450400	126.9	31.371700545472
58	450410	127	29.818760974839
58	450420	127.1	28.260241195169
