version 2
run General-0-20170227-13:40:08-9746
attr configname General
attr datetime 20170227-13:40:08
attr experiment General
attr inifile omnetpp.ini
attr iterationvars ""
attr iterationvars2 $repetition=0
attr measurement ""
attr network com.liborio.cooperativepositioning.LocScenario
attr processid 9746
attr repetition 0
attr replication #0
attr resultdir results
attr runnumber 0
attr seedset 0
param **.coreDebug false
param **.debug false
param *.**.nic.mac1609_4.bitrate 18Mbps
param *.**.nic.mac1609_4.txPower 20mW
param *.**.nic.mac1609_4.useServiceChannel false
param *.**.nic.phy80211p.analogueModels "xmldoc(\"config_splm.xml\")"
param *.**.nic.phy80211p.decider "xmldoc(\"config_splm.xml\")"
param *.**.nic.phy80211p.sensitivity -89dBm
param *.**.nic.phy80211p.thermalNoise -110dBm
param *.**.nic.phy80211p.usePropagationDelay true
param *.**.nic.phy80211p.useThermalNoise true
param *.annotations.draw false
param *.connectionManager.alpha 2.0
param *.connectionManager.carrierFrequency "5.890e9 Hz"
param *.connectionManager.pMax 20mW
param *.connectionManager.sat -89dBm
param *.connectionManager.sendDirect true
param *.manager.autoShutdown true
param *.manager.host "\"localhost\""
param *.manager.launchConfig "xmldoc(\"dmat.launchd.xml\")"
param *.manager.margin 25
param *.manager.moduleDisplayString "\"\""
param *.manager.moduleName "\"node\""
param *.manager.moduleType "\"org.car2x.veins.nodes.Car\""
param *.manager.port 9999
param *.manager.updateInterval 0.1s
param *.node[*].appl.beaconInterval 0.1s
param *.node[*].appl.beaconPriority 3
param *.node[*].appl.dataOnSch false
param *.node[*].appl.dataPriority 2
param *.node[*].appl.debug false
param *.node[*].appl.headerLength "256 bit"
param *.node[*].appl.maxOffset 0.005s
param *.node[*].appl.sendBeacons true
param *.node[*].appl.sendData true
param *.node[*].applType "\"LocAppCom\""
param *.node[*].mobilityType "\"TraCIMobility\""
param *.node[*].mobilityType.debug true
param *.node[*].veinsmobility.x 0
param *.node[*].veinsmobility.y 0
param *.node[*].veinsmobility.z 1.895
param *.node[*].veinsmobilityType "\"org.car2x.veins.modules.mobility.traci.TraCIMobility\""
param *.node[*].veinsmobilityType.debug true
param *.playgroundSizeX 10000m
param *.playgroundSizeY 10000m
param *.playgroundSizeZ 50m
param *.world.use2D false
param *.world.useTorus false

vector 2  LocScenario.node[0].veinsmobility  posx  ETV
vector 3  LocScenario.node[0].veinsmobility  posy  ETV
vector 4  LocScenario.node[0].veinsmobility  speed  ETV
vector 5  LocScenario.node[0].veinsmobility  acceleration  ETV
vector 6  LocScenario.node[0].veinsmobility  co2emission  ETV
6	22	0.3	2.0504865900066
6	32	0.4	2.0062547048879
6	42	0.5	4.3368700060797
6	52	0.6	1.2155295973938
6	62	0.7	4.7881378745982
6	72	0.8	0.91982462213609
6	82	0.9	5.4870584291106
6	92	1	1.5649662441337
6	102	1.1	2.679396520546
6	112	1.2	4.4693741725373
6	122	1.3	2.4894564547009
6	132	1.4	3.7079432423504
6	142	1.5	0.973
6	152	1.6	8.093772050466
6	162	1.7	0.973
6	172	1.8	7.1754748995159
6	182	1.9	2.1284040953182
6	192	2	2.2309474408448
6	202	2.1	0.84696967912514
6	212	2.2	2.687933501279
6	222	2.3	4.6015397199671
6	232	2.4	3.130415214769
6	242	2.5	2.2680819989862
6	252	2.6	3.9267881055713
6	262	2.7	0.973
6	272	2.8	3.3768672027453
6	282	2.9	7.6518280629625
6	292	3	1.1506102308339
6	302	3.1	4.4078790291925
6	312	3.2	0.973
6	322	3.3	6.7904286666512
6	332	3.4	0.63675761278731
6	342	3.5	0.973
6	352	3.6	2.032960922226
6	362	3.7	3.9394907790328
6	372	3.8	6.8469024084028
6	382	3.9	0.973
6	392	4	2.8144564765225
6	402	4.1	2.132872296164
6	412	4.2	5.9967855225464
6	422	4.3	0.77485273731688
6	432	4.4	2.80537118389
6	442	4.5	4.9566564567184
6	452	4.6	2.4515232953365
6	462	4.7	1.185787422917
6	472	4.8	3.4568348492663
6	482	4.9	6.3616645708934
6	492	5	0.973
6	502	5.1	3.3263647938521
6	512	5.2	3.1845091733317
6	522	5.3	5.5926297851708
6	532	5.4	0.973
6	542	5.5	0.973
6	552	5.6	3.9842912288398
6	562	5.7	4.3095974841498
6	572	5.8	5.450922752128
6	582	5.9	0.88332236409198
6	592	6	2.45275869658
6	602	6.1	4.1429730184481
6	612	6.2	3.3216137676277
6	622	6.3	0.973
6	632	6.4	3.0517863847163
6	642	6.5	4.5881393882995
6	652	6.6	4.3367186968336
6	662	6.7	0.61119238366853
6	672	6.8	5.5586153959171
6	682	6.9	3.5664388705447
6	692	7	0.9054726482143
6	702	7.1	0.97746933458625
6	712	7.2	5.7768649630554
6	722	7.3	0.973
6	732	7.4	5.2818209211263
6	742	7.5	0.973
6	752	7.6	4.2739607214182
6	762	7.7	0.973
6	772	7.8	3.0721323604416
6	782	7.9	4.2043916710386
6	792	8	4.2810048751187
6	802	8.1	3.3943028261166
6	812	8.2	1.2282711751753
6	822	8.3	3.9304039012484
6	832	8.4	0.973
6	842	8.5	4.1031374128659
6	852	8.6	6.6002752363398
6	862	8.7	3.0778370862391
6	872	8.8	0.973
6	882	8.9	4.7211652317696
6	892	9	2.9049553730464
6	902	9.1	2.709236653571
6	912	9.2	5.976047314155
6	922	9.3	2.5801353953039
6	932	9.4	1.8962205458869
6	942	9.5	4.2740586988954
6	952	9.6	0.973
6	962	9.7	5.5645307129208
6	972	9.8	0.98441310847218
6	982	9.9	4.3606462604008
6	992	10	3.0694407291902
6	1002	10.1	1.2815106170787
6	1012	10.2	6.1834406412276
6	1022	10.3	0.973
6	1032	10.4	1.5914262047825
6	1042	10.5	0.594633455951
6	1052	10.6	2.9974205562668
6	1062	10.7	8.2288932231812
6	1072	10.8	0.973
6	1082	10.9	5.6231254194343
6	1092	11	0.973
6	1102	11.1	5.8128526791758
6	1112	11.2	0.973
6	1122	11.3	4.9673543574995
6	1132	11.4	3.2683922023452
6	1142	11.5	4.8954378148886
6	1152	11.6	1.8117307866727
6	1162	11.7	2.4968615365585
6	1172	11.8	2.7704189869869
6	1182	11.9	4.2771590500136
6	1192	12	0.973
6	1202	12.1	5.7549573362393
6	1212	12.2	1.6998450760214
6	1222	12.3	4.2645814295427
6	1232	12.4	0.973
6	1242	12.5	2.9349916376306
6	1252	12.6	4.9597400096902
6	1262	12.7	3.9575768968407
6	1272	12.8	0.973
6	1282	12.9	6.491447901462
6	1292	13	0.973
6	1302	13.1	6.4780199028691
6	1312	13.2	0.97514690467926
6	1322	13.3	1.8223342466194
6	1332	13.4	7.921932533285
6	1342	13.5	2.3047714505909
6	1352	13.6	0.973
6	1362	13.7	1.4670374594148
6	1372	13.8	3.8500758267548
6	1382	13.9	6.4694511276871
6	1392	14	0.973
6	1402	14.1	2.7844494026404
6	1412	14.2	3.4306738931194
6	1422	14.3	5.397020772872
6	1432	14.4	2.5649703458477
6	1442	14.5	0.973
6	1452	14.6	8.635655041648
6	1462	14.7	0.973
6	1472	14.8	3.7895646143424
6	1482	14.9	1.0102170204231
6	1492	15	7.3660247496122
6	1502	15.1	2.7111860939182
6	1512	15.2	0.973
6	1522	15.3	3.8269478053859
6	1532	15.4	0.973
6	1542	15.5	8.2435382241073
6	1552	15.6	1.3208984643792
6	1562	15.7	3.2251154016419
6	1572	15.8	1.6620029856153
6	1582	15.9	5.1117232607217
6	1592	16	0.973
6	1602	16.1	5.1581838537727
6	1612	16.2	0.973
6	1622	16.3	5.755330379242
6	1632	16.4	0.973
6	1642	16.5	8.2132589951676
6	1652	16.6	1.8674338732975
6	1662	16.7	0.973
6	1672	16.8	3.620657199494
6	1682	16.9	2.8123439340928
6	1692	17	0.94391757630784
6	1702	17.1	6.6013407077551
6	1712	17.2	1.2920346061799
6	1722	17.3	2.7324100904794
6	1732	17.4	0.973
6	1742	17.5	8.0143841188419
6	1752	17.6	0.973
6	1762	17.7	4.9889953412533
6	1772	17.8	5.9362278487983
6	1782	17.9	0.973
6	1792	18	6.9271296480431
6	1802	18.1	2.5693936066498
6	1812	18.2	4.781838525829
6	1822	18.3	0.973
6	1832	18.4	1.7188041638971
6	1842	18.5	7.3054247530496
6	1852	18.6	0.973
6	1862	18.7	2.3842157195491
6	1872	18.8	2.0314859054244
6	1882	18.9	6.2999272844888
6	1892	19	2.9827688379331
6	1902	19.1	3.3425642217332
6	1912	19.2	1.4752610746089
6	1922	19.3	1.6358707928647
6	1932	19.4	3.0331203178554
6	1942	19.5	6.1901602030564
6	1952	19.6	1.9175697930743
6	1962	19.7	0.973
6	1972	19.8	5.7125694308767
6	1982	19.9	5.1343570339506
6	1992	20	1.9372843842789
6	2002	20.1	0.973
6	2012	20.2	3.5006802237926
6	2022	20.3	4.7127063010698
6	2032	20.4	0.973
6	2042	20.5	2.6203715530611
6	2052	20.6	5.6376723729873
6	2062	20.7	0.973
6	2072	20.8	6.1486247418656
6	2082	20.9	3.9891842665168
6	2092	21	0.973
6	2102	21.1	3.9511227090986
6	2112	21.2	3.9568709355379
6	2122	21.3	1.5902631252076
6	2132	21.4	0.90921371468973
6	2142	21.5	4.8545710854595
6	2152	21.6	2.4011949446144
6	2162	21.7	5.4458601430072
6	2172	21.8	0.973
6	2182	21.9	2.4298461614812
6	2192	22	4.5302590132717
6	2202	22.1	4.2877520133054
6	2212	22.2	2.810627646854
6	2222	22.3	0.973
6	2232	22.4	1.9848535923582
6	2242	22.5	4.5697901588752
6	2252	22.6	6.5045645198908
6	2262	22.7	1.686570485729
6	2272	22.8	0.973
6	2282	22.9	2.5227975016974
6	2292	23	5.3515920217093
6	2302	23.1	2.9210362415933
6	2312	23.2	1.0683488775585
6	2322	23.3	1.5256563270102
6	2332	23.4	6.800879485591
6	2342	23.5	0.73926430912817
6	2352	23.6	4.5127671662585
6	2362	23.7	0.973
6	2372	23.8	2.2887555731281
6	2382	23.9	4.5310616577668
6	2392	24	3.4742610803231
6	2402	24.1	1.9597028939469
6	2412	24.2	3.2309501116998
6	2422	24.3	3.8174741946771
6	2432	24.4	2.6216306721272
6	2442	24.5	0.973
6	2452	24.6	7.3949649332225
6	2462	24.7	0.973
6	2472	24.8	4.3911327728287
6	2482	24.9	2.6419653873153
6	2492	25	1.5961379806373
6	2502	25.1	2.8983448718167
6	2512	25.2	3.6496609042526
6	2522	25.3	5.7046327366961
6	2532	25.4	0.973
6	2542	25.5	3.8871685809784
6	2552	25.6	0.973
6	2562	25.7	3.1701491780621
6	2572	25.8	5.1687267031496
6	2582	25.9	2.813832040276
6	2592	26	2.2378184152831
6	2602	26.1	1.3475244930771
6	2612	26.2	1.9946881710475
6	2622	26.3	4.8381614468381
6	2632	26.4	0.973
6	2642	26.5	7.5095130620722
6	2652	26.6	3.0362861863945
6	2662	26.7	1.5973217189604
6	2672	26.8	4.1282655881886
6	2682	26.9	0.973
6	2692	27	4.1835781305193
6	2702	27.1	1.3335554611687
6	2712	27.2	3.0668411428475
6	2722	27.3	2.6796943068713
6	2732	27.4	6.2399160844581
6	2742	27.5	0.973
6	2752	27.6	0.83491422455933
6	2762	27.7	4.8083745945667
6	2772	27.8	4.9091472402944
6	2782	27.9	2.129911999428
6	2792	28	4.1512354572365
6	2802	28.1	0.973
6	2812	28.2	7.5867095182548
6	2822	28.3	1.402246120235
6	2832	28.4	4.5337783480802
6	2842	28.5	0.69551192039254
6	2852	28.6	0.973
6	2862	28.7	3.3918092284768
6	2872	28.8	6.8021226895883
6	2882	28.9	0.973
6	2892	29	4.5126903139538
6	2902	29.1	1.7712964117676
6	2912	29.2	4.4324933864111
6	2922	29.3	5.0212494904872
6	2932	29.4	2.8350705679281
6	2942	29.5	0.973
6	2952	29.6	6.3927443750995
6	2962	29.7	0.973
6	2972	29.8	4.3628856440669
6	2982	29.9	0.973
6	2992	30	3.8042438770961
6	3002	30.1	7.1858231973639
6	3012	30.2	0.973
6	3022	30.3	3.0438944422871
6	3032	30.4	8.0665053899246
6	3042	30.5	2.0429121735235
6	3052	30.6	0.64965957087973
6	3062	30.7	2.1468652146407
6	3072	30.8	5.654975507864
6	3082	30.9	3.1014326688948
6	3092	31	0.973
6	3102	31.1	2.3830874544869
6	3112	31.2	2.7089413595311
6	3122	31.3	3.1775094793177
6	3132	31.4	5.3135381560346
6	3142	31.5	1.8307168066627
6	3152	31.6	5.532689110065
6	3162	31.7	1.1445689441418
6	3172	31.8	5.1891020923199
6	3182	31.9	2.6050812930773
6	3192	32	0.973
6	3202	32.1	4.6078493405923
6	3212	32.2	4.8635372410176
6	3222	32.3	2.3191694745268
6	3232	32.4	3.0346498146871
6	3242	32.5	0.92331181097037
6	3252	32.6	7.0632238665824
6	3262	32.7	0.973
6	3272	32.8	5.9753203289837
6	3282	32.9	0.973
6	3292	33	8.8764837090877
6	3302	33.1	0.973
6	3312	33.2	6.7624528464951
6	3322	33.3	4.2133192458004
6	3332	33.4	0.973
6	3342	33.5	5.3721080733812
6	3352	33.6	0.973
6	3362	33.7	4.1612691135916
6	3372	33.8	2.6918980190938
6	3382	33.9	6.4711908110449
6	3392	34	1.7706735479462
6	3402	34.1	1.6810760889525
6	3412	34.2	3.0206726861523
6	3422	34.3	5.5743002544078
6	3432	34.4	1.0355728780251
6	3442	34.5	3.7038308351936
6	3452	34.6	2.9583752550924
6	3462	34.7	3.8471749176033
6	3472	34.8	1.8694243600269
6	3482	34.9	0.973
6	3492	35	4.8988652130166
6	3502	35.1	4.3360294286238
6	3512	35.2	0.973
6	3522	35.3	6.1543642636383
6	3532	35.4	0.973
6	3542	35.5	2.9142212513279
6	3552	35.6	4.8284975193307
6	3562	35.7	2.2149534024653
6	3572	35.8	3.497242623363
6	3582	35.9	6.391980968733
6	3592	36	0.973
6	3602	36.1	6.727029617718
6	3612	36.2	0.71562839338312
6	3622	36.3	2.0575664850178
6	3632	36.4	6.4308167634549
6	3642	36.5	0.973
6	3652	36.6	2.0537221548667
6	3662	36.7	5.7308292374962
6	3672	36.8	0.973
6	3682	36.9	3.1781451996748
6	3692	37	7.0243677519944
6	3702	37.1	0.64342458326537
6	3712	37.2	2.410164499132
6	3722	37.3	3.7230288512812
6	3732	37.4	0.75494797041698
6	3742	37.5	4.5436668027484
6	3752	37.6	1.8078529256274
6	3762	37.7	2.9478335687383
6	3772	37.8	1.3448217413693
6	3782	37.9	6.9315935744411
6	3792	38	1.2995965232059
6	3802	38.1	3.8056772448527
6	3812	38.2	3.9983703480878
6	3822	38.3	2.844661974564
6	3832	38.4	2.7490599973046
6	3842	38.5	3.0573542707577
6	3852	38.6	2.6235126000125
6	3862	38.7	0.973
6	3872	38.8	5.1750399494897
6	3882	38.9	1.7512818468877
6	3892	39	4.6302163211172
6	3902	39.1	2.5818207817321
6	3912	39.2	0.973
6	3922	39.3	7.5038341865512
6	3932	39.4	0.973
6	3942	39.5	5.5098067990407
6	3952	39.6	3.8963285493764
6	3962	39.7	3.0036044044497
6	3972	39.8	2.841976333147
6	3982	39.9	0.973
6	3992	40	2.4871670948402
6	4002	40.1	3.9339697808841
6	4012	40.2	0.973
6	4022	40.3	3.9773167868796
6	4032	40.4	1.058475028506
6	4042	40.5	6.5895908061051
6	4052	40.6	1.3139207530393
6	4062	40.7	5.5873722063442
6	4072	40.8	0.973
6	4082	40.9	6.0960956401117
6	4092	41	0.973
6	4102	41.1	7.7926679199299
6	4112	41.2	0.973
6	4122	41.3	3.2233082500373
6	4132	41.4	4.0848680672013
6	4142	41.5	2.9800557588226
6	4152	41.6	1.416957577564
6	4162	41.7	3.7044382850902
6	4172	41.8	2.3779306265135
6	4182	41.9	0.99926779597262
6	4192	42	3.9599406478444
6	4202	42.1	1.0860226008783
6	4212	42.2	6.0964478156744
6	4222	42.3	4.4185414359771
6	4232	42.4	1.3206515425723
6	4242	42.5	1.5195616580562
6	4252	42.6	1.2892427825161
6	4262	42.7	6.8744355569242
6	4272	42.8	3.6243333395661
6	4282	42.9	3.5672801808694
6	4292	43	1.5154435305412
6	4302	43.1	0.973
6	4312	43.2	2.0424676246715
6	4322	43.3	6.3589177820608
6	4332	43.4	0.973
6	4342	43.5	6.1008105843273
6	4352	43.6	1.1729091241467
6	4362	43.7	3.1816399298893
6	4372	43.8	4.4845976308308
6	4382	43.9	0.973
6	4392	44	4.7781429936436
6	4402	44.1	2.1339229105905
6	4412	44.2	6.7974983622589
6	4422	44.3	0.973
6	4432	44.4	6.3543807844571
6	4442	44.5	3.0684199596304
6	4452	44.6	1.8692024796224
6	4462	44.7	0.973
6	4472	44.8	2.2675131696525
6	4482	44.9	7.2344807305851
6	4492	45	0.973
6	4502	45.1	1.1034789797769
6	4512	45.2	5.9450380653493
6	4522	45.3	1.3667964424001
6	4532	45.4	4.1053601441436
6	4542	45.5	4.5148999879387
6	4552	45.6	0.973
6	4562	45.7	1.8195026736246
6	4572	45.8	7.3470460453758
6	4582	45.9	0.973
6	4592	46	1.8780532741466
6	4602	46.1	6.7695289525445
6	4612	46.2	2.4505881443433
6	4622	46.3	3.4604434033928
6	4632	46.4	0.973
6	4642	46.5	5.5818049125496
6	4652	46.6	3.1150887003807
6	4662	46.7	5.6439649294225
6	4672	46.8	0.973
6	4682	46.9	6.0021490696959
6	4692	47	3.1684433231825
6	4702	47.1	1.1206307521039
6	4712	47.2	0.89954815728036
6	4722	47.3	5.0655785504026
6	4732	47.4	1.1115518046415
6	4742	47.5	3.9715027704747
6	4752	47.6	4.3940195061742
6	4762	47.7	2.4323911365411
6	4772	47.8	3.4031264838704
6	4782	47.9	0.973
6	4792	48	1.4316751564447
6	4802	48.1	2.4622992072069
6	4812	48.2	3.5500302833864
6	4822	48.3	6.7959526609818
6	4832	48.4	0.973
6	4842	48.5	3.8115351436224
6	4852	48.6	4.3404452133477
6	4862	48.7	3.7423929595186
6	4872	48.8	2.5596117309634
6	4882	48.9	0.973
6	4892	49	2.8960740288648
6	4902	49.1	4.7639027208247
6	4912	49.2	2.4017174292314
6	4922	49.3	2.1789196126092
6	4932	49.4	1.091420025051
6	4942	49.5	6.9666775016111
6	4952	49.6	2.6928448772939
6	4962	49.7	3.2079585825646
6	4972	49.8	2.7029274079401
6	4982	49.9	0.79259299659956
6	4992	50	5.1181660686881
6	5002	50.1	1.3741984331487
6	5012	50.2	0.973
6	5022	50.3	1.4454372803551
6	5032	50.4	8.5673785722295
6	5042	50.5	0.973
6	5052	50.6	2.9324693439359
6	5062	50.7	2.8069689227701
6	5072	50.8	6.9641820129131
6	5082	50.9	0.973
6	5092	51	7.1483578292757
6	5102	51.1	3.6756665433216
6	5112	51.2	0.973
6	5122	51.3	4.0592815986859
6	5132	51.4	1.6916384687757
6	5142	51.5	3.7453411149964
6	5152	51.6	6.2278149188856
6	5162	51.7	0.973
6	5172	51.8	7.5674485562045
6	5182	51.9	2.3047663464122
6	5192	52	2.8599486231994
6	5202	52.1	3.1180423389905
6	5212	52.2	0.973
6	5222	52.3	6.4655365322215
6	5232	52.4	3.066436962427
6	5242	52.5	3.1264307289148
6	5252	52.6	0.973
6	5262	52.7	0.973
6	5272	52.8	8.6335949550279
6	5282	52.9	0.973
6	5292	53	1.792976164537
6	5302	53.1	3.1170029698714
6	5312	53.2	1.5650213477157
6	5322	53.3	7.2479744419261
6	5332	53.4	0.973
6	5342	53.5	3.5560623855994
6	5352	53.6	5.3777860693962
6	5362	53.7	3.5731439807661
6	5372	53.8	0.973
6	5382	53.9	2.9910882811343
6	5392	54	2.2254659954445
6	5402	54.1	0.973
6	5412	54.2	4.0079298948669
6	5422	54.3	2.2571829901608
6	5432	54.4	4.5158770832036
6	5442	54.5	4.5136239456069
6	5452	54.6	3.582280762529
6	5462	54.7	0.973
6	5472	54.8	6.006290494626
6	5482	54.9	4.2347131585244
6	5492	55	0.973
6	5502	55.1	2.3719297046435
6	5512	55.2	5.6946570999543
6	5522	55.3	0.973
6	5532	55.4	4.2350020793926
6	5542	55.5	2.2918752760568
6	5552	55.6	4.78998366503
6	5562	55.7	1.9140606382969
6	5572	55.8	2.3282139620778
6	5582	55.9	1.7759852666142
6	5592	56	5.1860884701845
6	5602	56.1	4.1174445725827
6	5612	56.2	0.973
6	5622	56.3	2.7878220158249
6	5632	56.4	6.9501137234999
6	5642	56.5	0.973
6	5652	56.6	1.8419367608324
6	5662	56.7	7.6236115197985
6	5672	56.8	0.973
6	5682	56.9	6.7694174895243
6	5692	57	0.973
6	5702	57.1	7.327438172395
6	5712	57.2	0.973
6	5722	57.3	1.5511086145822
6	5732	57.4	2.7924887710997
6	5742	57.5	6.0069679618534
6	5752	57.6	1.0910407945734
6	5762	57.7	4.4323065751367
6	5772	57.8	5.9426732218078
6	5782	57.9	0.973
6	5792	58	5.1556150088872
6	5802	58.1	2.2020968969476
6	5812	58.2	2.5609895717824
6	5822	58.3	4.5532360848493
6	5832	58.4	0.99278373486507
6	5842	58.5	0.973
6	5852	58.6	6.1252626739971
6	5862	58.7	3.5089612701682
6	5872	58.8	1.4962518372961
6	5882	58.9	2.1300856636443
6	5892	59	5.2911428772177
6	5902	59.1	2.175844936574
6	5912	59.2	0.973
6	5922	59.3	8.3926068093647
6	5932	59.4	0.88639973984446
6	5942	59.5	0.973
6	5952	59.6	4.6612015924734
6	5962	59.7	0.973
6	5972	59.8	6.7839814270664
6	5982	59.9	0.973
6	5992	60	3.8950614659028
6	6002	60.1	2.0766936291362
6	6012	60.2	5.9375762359481
6	6022	60.3	0.973
6	6032	60.4	5.4340321563572
6	6042	60.5	2.990399725232
6	6052	60.6	2.4074979024751
6	6062	60.7	4.8373092006225
6	6072	60.8	1.4380400494581
6	6082	60.9	2.1618091517451
6	6092	61	0.973
6	6102	61.1	6.2457902284083
6	6112	61.2	0.973
6	6122	61.3	7.8292815091576
6	6132	61.4	1.6133063125586
6	6142	61.5	4.5451381725344
6	6152	61.6	0.973
6	6162	61.7	4.2438604484614
6	6172	61.8	7.3182358876898
6	6182	61.9	2.8486538910506
6	6192	62	0.973
6	6202	62.1	1.3297514212219
6	6212	62.2	5.7583456152916
6	6222	62.3	3.822666083635
6	6232	62.4	0.973
6	6242	62.5	7.8926602273714
6	6252	62.6	1.7509786262109
6	6262	62.7	3.845549811455
6	6272	62.8	0.973
6	6282	62.9	2.8526946083985
6	6292	63	1.9484613998683
6	6302	63.1	6.3841340977433
6	6312	63.2	1.6499037779176
6	6322	63.3	2.8972253576125
6	6332	63.4	0.73728597029857
6	6342	63.5	4.0447103598141
6	6352	63.6	1.1089138690243
6	6362	63.7	2.6211197773295
6	6372	63.8	5.8529685095795
6	6382	63.9	0.63447671946306
6	6392	64	6.8028938496086
6	6402	64.1	1.7338565651692
6	6412	64.2	2.9169559918649
6	6422	64.3	3.6153802964669
6	6432	64.4	0.973
6	6442	64.5	6.2129004705111
6	6452	64.6	0.973
6	6462	64.7	3.9269365511134
6	6472	64.8	1.6519651399082
6	6482	64.9	4.2485869029206
6	6492	65	1.5891235704947
6	6502	65.1	2.8384293717545
6	6512	65.2	2.3920559765595
6	6522	65.3	1.8229025930849
6	6532	65.4	4.3403022133221
6	6542	65.5	1.2270696425712
6	6552	65.6	1.8310165580524
6	6562	65.7	6.4080029246003
6	6572	65.8	1.8815910651209
6	6582	65.9	3.1615824392613
6	6592	66	0.973
6	6602	66.1	6.8948175007711
6	6612	66.2	0.76042827783047
6	6622	66.3	1.0655964983286
6	6632	66.4	7.2549181177253
6	6642	66.5	3.0178870030548
6	6652	66.6	0.973
6	6662	66.7	2.5865964316853
6	6672	66.8	5.915871362546
6	6682	66.9	0.973
6	6692	67	2.3854658239748
6	6702	67.1	3.2550517062456
6	6712	67.2	3.4216208142686
6	6722	67.3	5.4828577286273
6	6732	67.4	3.3396358511898
6	6742	67.5	1.596183769082
6	6752	67.6	4.746685022211
6	6762	67.7	0.973
6	6772	67.8	6.4754926776358
6	6782	67.9	1.1715546703154
6	6792	68	0.973
6	6802	68.1	6.1028229614166
6	6812	68.2	4.3253255765485
6	6822	68.3	2.428566881575
6	6832	68.4	0.973
6	6842	68.5	4.8304163558452
6	6852	68.6	0.973
6	6862	68.7	8.3811107613182
6	6872	68.8	0.973
6	6882	68.9	2.2857463636442
6	6892	69	4.7642798925504
6	6902	69.1	5.4389206908234
6	6912	69.2	0.973
6	6922	69.3	2.5122500590153
6	6932	69.4	0.973
6	6942	69.5	6.4496518157747
6	6952	69.6	1.6817183461047
6	6962	69.7	2.2612276097939
6	6972	69.8	3.8489521356997
6	6982	69.9	0.973
6	6992	70	7.7741537654288
6	7002	70.1	0.973
6	7012	70.2	3.8931961605912
6	7022	70.3	5.6047534939491
6	7032	70.4	0.973
6	7042	70.5	5.0445681986904
6	7052	70.6	2.029859673727
6	7062	70.7	3.1139920776522
6	7072	70.8	5.0345934440596
6	7082	70.9	0.973
6	7092	71	5.3009103825388
6	7102	71.1	0.973
6	7112	71.2	3.0199229697349
6	7122	71.3	5.1671146862994
6	7132	71.4	1.1783356199586
6	7142	71.5	5.4149254691049
6	7152	71.6	1.5881305638695
6	7162	71.7	2.403615085758
6	7172	71.8	4.3770200444429
6	7182	71.9	0.973
6	7192	72	7.8455230511986
6	7202	72.1	2.6574694533552
6	7212	72.2	3.1938351879058
6	7222	72.3	0.973
6	7232	72.4	4.8623522235767
6	7242	72.5	3.0422707531033
6	7252	72.6	5.6757444574072
6	7262	72.7	0.973
6	7272	72.8	0.973
6	7282	72.9	2.9933292473543
6	7292	73	7.865584619898
6	7302	73.1	0.973
6	7312	73.2	0.67310312723568
6	7322	73.3	3.2961030777757
6	7332	73.4	1.8560270215811
6	7342	73.5	5.8307100706772
6	7352	73.6	4.7560546992642
6	7362	73.7	0.973
6	7372	73.8	5.8273041761919
6	7382	73.9	1.1636888214576
6	7392	74	4.1856224741363
6	7402	74.1	1.3977656915693
6	7412	74.2	3.5709181191148
6	7422	74.3	4.4143188208793
6	7432	74.4	0.973
6	7442	74.5	2.5630094998708
6	7452	74.6	7.4314282895065
6	7462	74.7	0.973
6	7472	74.8	2.2196774131519
6	7482	74.9	5.9206409184321
6	7492	75	0.973
6	7502	75.1	6.6483476935505
6	7512	75.2	3.7831469597364
6	7522	75.3	0.973
6	7532	75.4	5.8972717300622
6	7542	75.5	0.973
6	7552	75.6	7.3995712679066
6	7562	75.7	1.4076386076246
6	7572	75.8	2.5379744237697
6	7582	75.9	2.2708950353518
6	7592	76	0.973
6	7602	76.1	3.4169667387411
6	7612	76.2	4.70510431606
6	7622	76.3	3.4556782812923
6	7632	76.4	5.0972910436405
6	7642	76.5	0.973
6	7652	76.6	4.8931345781856
6	7662	76.7	3.1094562160227
6	7672	76.8	1.0143278199816
6	7682	76.9	3.0808970470509
6	7692	77	7.0055938922409
6	7702	77.1	0.973
6	7712	77.2	2.2888845355884
6	7722	77.3	3.9253226063845
6	7732	77.4	7.4336215334771
6	7742	77.5	2.3610912341467
6	7752	77.6	3.2402431607884
6	7762	77.7	0.973
6	7772	77.8	2.790260855094
6	7782	77.9	4.3033308613281
6	7792	78	0.973
6	7802	78.1	8.4181009715365
6	7812	78.2	0.973
6	7822	78.3	6.0472643433897
6	7832	78.4	2.6769521452938
6	7842	78.5	4.0150777694873
6	7852	78.6	0.973
6	7862	78.7	2.0546681582764
6	7872	78.8	3.4875717521189
6	7882	78.9	7.3001756800564
6	7892	79	1.1048535816615
6	7902	79.1	0.973
6	7912	79.2	8.1164614443321
6	7922	79.3	1.3439013073302
6	7932	79.4	2.2674334309796
6	7942	79.5	3.3738042497692
6	7952	79.6	2.6043547006501
6	7962	79.7	5.1990709245863
6	7972	79.8	0.973
6	7982	79.9	5.0114600904051
6	7992	80	0.973
6	8002	80.1	5.6168066686216
6	8012	80.2	1.9737137514803
6	8022	80.3	0.973
6	8032	80.4	4.3816882087303
6	8042	80.5	6.4887859035858
6	8052	80.6	0.973
6	8062	80.7	0.70752298007804
6	8072	80.8	8.1655863372271
6	8082	80.9	0.973
6	8092	81	7.7289695270572
6	8102	81.1	0.54749693337895
6	8112	81.2	5.3409980946769
6	8122	81.3	1.1231968666647
6	8132	81.4	4.3442764791573
6	8142	81.5	1.9078803009275
6	8152	81.6	2.8001844036326
6	8162	81.7	0.973
6	8172	81.8	1.4046416191539
6	8182	81.9	7.9146880912453
6	8192	82	0.973
6	8202	82.1	6.0267932684479
6	8212	82.2	0.973
6	8222	82.3	3.3538666348847
6	8232	82.4	1.4320162877412
6	8242	82.5	6.4971368569905
6	8252	82.6	0.973
6	8262	82.7	4.6694976106243
6	8272	82.8	4.2155212892396
6	8282	82.9	1.6406332795412
6	8292	83	0.56648412261566
6	8302	83.1	4.8853833067352
6	8312	83.2	0.973
6	8322	83.3	6.8613690070718
6	8332	83.4	1.2834649327906
6	8342	83.5	5.1282817133987
6	8352	83.6	0.973
6	8362	83.7	5.1960840059666
6	8372	83.8	0.973
6	8382	83.9	5.1002017269961
6	8392	84	5.1806467119837
6	8402	84.1	0.973
6	8412	84.2	6.5977977060528
6	8422	84.3	0.973
6	8432	84.4	8.785208381892
6	8442	84.5	0.973
6	8452	84.6	3.4492652498063
6	8462	84.7	3.7559722581158
6	8472	84.8	0.973
6	8482	84.9	4.0297704305868
6	8492	85	1.7611132905073
6	8502	85.1	4.8129337110192
6	8512	85.2	1.8798286292498
6	8522	85.3	0.62415316811487
6	8532	85.4	6.7324938282973
6	8542	85.5	4.7395529316556
6	8552	85.6	1.2698218445978
6	8562	85.7	0.973
6	8572	85.8	2.6996897740298
6	8582	85.9	6.0574680038295
6	8592	86	4.2047852864314
6	8602	86.1	1.751919196592
6	8612	86.2	0.973
6	8622	86.3	2.9514647797617
6	8632	86.4	4.5969040304002
6	8642	86.5	3.6754070780203
6	8652	86.6	0.973
6	8662	86.7	2.6187607508284
6	8672	86.8	1.1782416443844
6	8682	86.9	5.3953767340684
6	8692	87	0.70497986696008
6	8702	87.1	5.5263577622417
6	8712	87.2	2.3602626085177
6	8722	87.3	2.4633839044396
6	8732	87.4	3.6215191050883
6	8742	87.5	3.7128158135255
6	8752	87.6	0.973
6	8762	87.7	3.5460963179634
6	8772	87.8	2.6190884350102
6	8782	87.9	4.8572945554606
6	8792	88	2.6207596671427
6	8802	88.1	3.3701040662201
6	8812	88.2	0.973
6	8822	88.3	3.6951062219451
6	8832	88.4	5.7528521559355
6	8842	88.5	0.973
6	8852	88.6	6.1409138253799
6	8862	88.7	5.0472634228479
6	8872	88.8	0.973
6	8882	88.9	6.0133316324478
6	8892	89	1.4631606027884
6	8902	89.1	3.4582329133484
6	8912	89.2	0.973
6	8922	89.3	3.5830505537015
6	8932	89.4	6.3375240093741
6	8942	89.5	0.973
6	8952	89.6	6.621347256285
6	8962	89.7	0.973
6	8972	89.8	4.5242974649986
6	8982	89.9	1.5119355941635
6	8992	90	2.8637423545192
6	9002	90.1	6.6049691231941
6	9012	90.2	3.9358719818758
6	9022	90.3	0.973
6	9032	90.4	7.5512189134844
6	9042	90.5	2.778249627804
6	9052	90.6	2.9614115637099
6	9062	90.7	3.6015588601546
6	9072	90.8	0.973
6	9082	90.9	0.973
6	9092	91	3.1869480409046
6	9102	91.1	6.9702946127377
6	9112	91.2	2.041386596251
6	9122	91.3	0.73732340697274
6	9132	91.4	4.7398431370009
6	9142	91.5	4.8915349112549
6	9152	91.6	0.973
6	9162	91.7	3.9848587930378
6	9172	91.8	6.7164110373675
6	9182	91.9	0.973
6	9192	92	4.3930832444632
6	9202	92.1	5.0843757716353
6	9212	92.2	3.7095988395315
6	9222	92.3	1.2767025872893
6	9232	92.4	2.8554719320565
6	9242	92.5	2.8248848547509
6	9252	92.6	3.1400821122482
6	9262	92.7	0.973
6	9272	92.8	3.2498443546816
6	9282	92.9	5.6118968173427
6	9292	93	0.973
6	9302	93.1	6.7564927670907
6	9312	93.2	0.73603084378522
6	9322	93.3	3.1670920049694
6	9332	93.4	3.7897463506727
6	9342	93.5	2.7749097004715
6	9352	93.6	0.973
6	9362	93.7	3.1088070256258
6	9372	93.8	5.8905508856627
6	9382	93.9	3.5463657750056
6	9392	94	0.973
6	9402	94.1	4.3053736233856
6	9412	94.2	2.4887342584925
6	9422	94.3	0.973
6	9432	94.4	7.4941009912055
6	9442	94.5	0.973
6	9452	94.6	3.3585038228357
6	9462	94.7	0.81684608532513
6	9472	94.8	5.0062560592211
6	9482	94.9	0.973
6	9492	95	6.545455231895
6	9502	95.1	0.973
6	9512	95.2	7.4090849584571
6	9522	95.3	0.973
6	9532	95.4	6.2982408755812
6	9542	95.5	0.973
6	9552	95.6	8.0962859775766
6	9562	95.7	0.973
6	9572	95.8	4.6159004149112
6	9582	95.9	4.4332101063139
6	9592	96	1.2040879536065
6	9602	96.1	6.8526523783338
6	9612	96.2	0.973
6	9622	96.3	4.8336600034788
6	9632	96.4	0.973
6	9642	96.5	6.1016510344369
6	9652	96.6	0.96849106401469
6	9662	96.7	3.0130949927013
6	9672	96.8	1.0703051113061
6	9682	96.9	6.3874401360152
6	9692	97	1.2717118591705
6	9702	97.1	1.4026935968879
6	9712	97.2	6.0064162602924
6	9722	97.3	1.0469355884571
6	9732	97.4	0.973
6	9742	97.5	3.2209580359008
6	9752	97.6	8.0166177309398
6	9762	97.7	0.973
6	9772	97.8	8.8107776880702
6	9782	97.9	0.973
6	9792	98	0.973
6	9802	98.1	7.2618466424746
6	9812	98.2	3.6255746774547
6	9822	98.3	0.973
6	9832	98.4	4.9265253663646
6	9842	98.5	0.973
6	9852	98.6	7.1167451552052
6	9862	98.7	1.6224265889748
6	9872	98.8	1.733379051471
6	9882	98.9	2.9963462957062
6	9892	99	0.973
6	9902	99.1	7.2579086769292
6	9912	99.2	2.8187821460078
6	9922	99.3	1.6769093357794
6	9932	99.4	0.973
6	9942	99.5	6.3980618302399
6	9952	99.6	5.2035948359179
6	9962	99.7	1.4249096394722
6	9972	99.8	0.973
6	9982	99.9	5.2236935059669
6	9992	100	1.5461158387345
6	10002	100.1	5.3317725475458
6	10012	100.2	3.0323898759679
6	10022	100.3	2.2261948288478
6	10032	100.4	0.973
6	10042	100.5	5.1458252300882
6	10052	100.6	5.9739250164938
6	10062	100.7	0.973
6	10072	100.8	3.6044942282446
6	10082	100.9	4.6635533229273
6	10092	101	2.8510787729533
6	10102	101.1	0.973
6	10112	101.2	2.5437952091703
6	10122	101.3	3.4720402999507
6	10132	101.4	7.1977962604377
6	10142	101.5	3.5874630090088
6	10152	101.6	0.973
6	10162	101.7	6.9047505252479
6	10172	101.8	2.3462357152265
6	10182	101.9	2.0933511098466
6	10192	102	0.973
6	10202	102.1	7.7733135152275
6	10212	102.2	0.973
6	10222	102.3	3.8570551416334
6	10232	102.4	1.8036032684517
6	10242	102.5	1.3780580811864
6	10252	102.6	5.0462568165835
6	10262	102.7	0.97570705424937
6	10272	102.8	3.7669476317114
6	10282	102.9	2.2406046475126
6	10292	103	0.79399140778473
6	10302	103.1	4.2876246477072
6	10312	103.2	1.6717277622453
6	10322	103.3	7.1594775025187
6	10332	103.4	0.973
6	10342	103.5	4.9355477610533
6	10352	103.6	0.9532083715355
6	10362	103.7	2.5853779422679
6	10372	103.8	3.6248491155858
6	10382	103.9	0.74089425882286
6	10392	104	6.6440424811779
6	10402	104.1	1.1194495299501
6	10412	104.2	5.3200255777534
6	10422	104.3	1.981263077937
6	10432	104.4	0.973
6	10442	104.5	8.0385517807116
6	10452	104.6	0.973
6	10462	104.7	2.3458782716382
6	10472	104.8	5.4105942101238
6	10482	104.9	4.6718776056298
6	10492	105	0.973
6	10502	105.1	3.3757349669889
6	10512	105.2	5.0267505988134
6	10522	105.3	0.973
6	10532	105.4	2.6484938520876
6	10542	105.5	0.973
6	10552	105.6	6.3532960916246
6	10562	105.7	4.5425622630703
6	10572	105.8	0.973
6	10582	105.9	3.4329332122481
6	10592	106	4.4187122666263
6	10602	106.1	3.6475126820334
6	10612	106.2	0.973
6	10622	106.3	3.3472582740292
6	10632	106.4	0.973
6	10642	106.5	4.6027138032756
6	10652	106.6	6.7012517236442
6	10662	106.7	1.1247867617669
6	10672	106.8	0.973
6	10682	106.9	7.607295903606
6	10692	107	0.973
6	10702	107.1	6.4536484643343
6	10712	107.2	2.9335296329598
6	10722	107.3	0.973
6	10732	107.4	4.6350041269534
6	10742	107.5	0.973
6	10752	107.6	3.8029568723382
6	10762	107.7	1.9850229928951
6	10772	107.8	2.4904992122362
6	10782	107.9	1.4054810515939
6	10792	108	6.3460105678613
6	10802	108.1	5.2671267059445
6	10812	108.2	1.4159408577951
6	10822	108.3	0.973
6	10832	108.4	4.03238550621
6	10842	108.5	1.9066962344367
6	10852	108.6	0.973
6	10862	108.7	5.228003032282
6	10872	108.8	1.2791242394633
6	10882	108.9	2.0052049757484
6	10892	109	3.1146591084496
6	10902	109.1	8.4921520503285
6	10912	109.2	0.973
6	10922	109.3	2.6353007949538
6	10932	109.4	4.4318016950618
6	10942	109.5	0.973
6	10952	109.6	3.6257287755338
6	10962	109.7	3.923679401938
6	10972	109.8	1.9482982284146
6	10982	109.9	4.8050901963564
6	10992	110	4.7537791628771
6	11002	110.1	0.973
6	11012	110.2	2.0075062651897
6	11022	110.3	8.0110930076984
6	11032	110.4	0.973
6	11042	110.5	3.4550096110249
6	11052	110.6	0.973
6	11062	110.7	5.7823922153228
6	11072	110.8	3.6855348712452
6	11082	110.9	0.86786569293618
6	11092	111	2.1094463459686
6	11102	111.1	7.3404686892908
6	11112	111.2	0.973
6	11122	111.3	4.2963903921025
6	11132	111.4	0.973
6	11142	111.5	5.4430910542484
6	11152	111.6	2.0126062779997
6	11162	111.7	2.291562289651
6	11172	111.8	1.160149772695
6	11182	111.9	2.816483782752
6	11192	112	2.8576785773346
6	11202	112.1	4.4605548895387
6	11212	112.2	4.6536195318237
6	11222	112.3	4.0573657478478
6	11232	112.4	1.1210022148432
6	11242	112.5	0.973
6	11252	112.6	5.5599451103796
6	11262	112.7	0.76435959854722
6	11272	112.8	4.3902245192366
6	11282	112.9	3.5700578062807
6	11292	113	3.6008392424227
6	11302	113.1	0.973
6	11312	113.2	5.2100721104366
6	11322	113.3	2.8264418125199
6	11332	113.4	5.4788301497923
6	11342	113.5	0.973
6	11352	113.6	4.3414314342918
6	11362	113.7	1.8803047509885
6	11372	113.8	6.2421287029224
6	11382	113.9	0.973
6	11392	114	8.66326705912
6	11402	114.1	0.973
6	11412	114.2	7.8928842381795
6	11422	114.3	3.3368278787803
6	11432	114.4	2.3873435618522
6	11442	114.5	2.3990426229857
6	11452	114.6	1.9349181056152
6	11462	114.7	2.3681164923538
6	11472	114.8	3.725326645065
6	11482	114.9	0.973
6	11492	115	5.2667356315806
6	11502	115.1	4.4798390749569
6	11512	115.2	0.973
6	11522	115.3	7.5265509699416
6	11532	115.4	0.973
6	11542	115.5	0.89549796544425
6	11552	115.6	4.6312978464771
6	11562	115.7	3.776217535267
6	11572	115.8	4.139382975973
6	11582	115.9	0.973
6	11592	116	4.8743853276947
6	11602	116.1	5.4785683835265
6	11612	116.2	2.9203984703015
6	11622	116.3	0.973
6	11632	116.4	4.8732993988004
6	11642	116.5	2.1661520948817
6	11652	116.6	1.6568824943284
6	11662	116.7	6.2906312944963
6	11672	116.8	1.0342873357421
6	11682	116.9	0.71533263323872
6	11692	117	1.4697250987272
6	11702	117.1	7.0041981521251
6	11712	117.2	0.973
6	11722	117.3	8.1187651573912
6	11732	117.4	0.973
6	11742	117.5	5.1897156354663
6	11752	117.6	0.973
6	11762	117.7	5.7083963258009
6	11772	117.8	0.973
6	11782	117.9	0.973
6	11792	118	7.3835633456725
6	11802	118.1	0.973
6	11812	118.2	4.7419238805403
6	11822	118.3	0.973
6	11832	118.4	7.3024373825196
6	11842	118.5	0.973
6	11852	118.6	2.5506818810016
6	11862	118.7	3.9921420715272
6	11872	118.8	2.8593966396613
6	11882	118.9	4.2016656591279
6	11892	119	2.7249294854064
6	11902	119.1	0.973
5	22	0.3	-0.15904817315747
5	32	0.4	-0.16779929285406
5	42	0.5	0.31395308582578
5	52	0.6	-0.33173692431301
5	62	0.7	0.40698117520662
5	72	0.8	-0.39307912783698
5	82	0.9	0.55067602260969
5	92	1	-0.25988156949168
5	102	1.1	-0.029029544303221
5	112	1.2	0.33996612892953
5	122	1.3	-0.069167152279981
5	132	1.4	0.18206838613843
5	142	1.5	-0.77250991545153
5	152	1.6	1.0855780338403
5	162	1.7	-1.1790347248316
5	172	1.8	0.89830841040239
5	182	1.9	-0.14402079484427
5	192	2	-0.12249066743532
5	202	2.1	-0.40827789830512
5	212	2.2	-0.026576800947069
5	222	2.3	0.36825594641268
5	232	2.4	0.063593075168313
5	242	2.5	-0.11448761005884
5	252	2.6	0.22783770177046
5	262	2.7	-0.69265539208427
5	272	2.8	0.11637322371826
5	282	2.9	0.99455552315341
5	292	3	-0.34626813379582
5	302	3.1	0.32534692406188
5	312	3.2	-0.72935535346623
5	322	3.3	0.81633952066767
5	332	3.4	-0.4524300797144
5	342	3.5	-0.60369179712144
5	352	3.6	-0.16189590492285
5	362	3.7	0.23269791665953
5	372	3.8	0.8291477733059
5	382	3.9	-0.94855977818369
5	392	4	-9.7637553722052e-05
5	402	4.1	-0.14109041937626
5	412	4.2	0.65651339374018
5	422	4.3	-0.42321568096522
5	432	4.4	-0.0022778452607142
5	442	4.5	0.44126080661083
5	452	4.6	-0.076697552995775
5	462	4.7	-0.33806720371356
5	472	4.8	0.13214453458783
5	482	4.9	0.72878664287273
5	492	5	-0.78306569617705
5	502	5.1	0.10492512497585
5	512	5.2	0.075271593476636
5	522	5.3	0.57026645746081
5	532	5.4	-0.51222592554986
5	542	5.5	-0.52948439749887
5	552	5.6	0.2418692876352
5	562	5.7	0.30779747993218
5	572	5.8	0.54072293827776
5	582	5.9	-0.4013806350995
5	592	6	-0.076620026095746
5	602	6.1	0.27175825471058
5	612	6.2	0.10169024693312
5	622	6.3	-0.7642717445502
5	632	6.4	0.048510161158646
5	642	6.5	0.36499819455202
5	652	6.6	0.31147997302469
5	662	6.7	-0.4574486691039
5	672	6.8	0.5631805075798
5	682	6.9	0.1513568878174
5	692	7	-0.39695656793192
5	702	7.1	-0.38154284574556
5	712	7.2	0.6083488281816
5	722	7.3	-0.60114711627829
5	732	7.4	0.50670663802887
5	742	7.5	-0.51299639707434
5	752	7.6	0.2995785267791
5	762	7.7	-0.72443682639861
5	772	7.8	0.053494485071859
5	782	7.9	0.28701162559447
5	792	8	0.30143140077126
5	802	8.1	0.11757471375166
5	812	8.2	-0.32962222772184
5	822	8.3	0.22884096193593
5	832	8.4	-0.60491161320822
5	842	8.5	0.26613259762524
5	852	8.6	0.77785609704442
5	862	8.7	0.050771350553269
5	872	8.8	-1.1824586827308
5	882	8.9	0.39395506451836
5	892	9	0.017714682803494
5	902	9.1	-0.0227471939521
5	912	9.2	0.64964677384125
5	922	9.3	-0.051314868195931
5	932	9.4	-0.19210049109532
5	942	9.5	0.29799363340715
5	952	9.6	-0.80828779267613
5	962	9.7	0.56583512597719
5	972	9.8	-0.38012301216369
5	982	9.9	0.317355861282
5	992	10	0.050262609613121
5	1002	10.1	-0.31869441291782
5	1012	10.2	0.69130275554489
5	1022	10.3	-0.52022891421803
5	1032	10.4	-0.25437430168967
5	1042	10.5	-0.4603297122987
5	1052	10.6	0.038251931359987
5	1062	10.7	1.1139758011792
5	1072	10.8	-0.71596916576382
5	1082	10.9	0.57708762846886
5	1092	11	-0.55403675402047
5	1102	11.1	0.6158741756575
5	1112	11.2	-1.0841870707693
5	1122	11.3	0.44484861660749
5	1132	11.4	0.09263538680969
5	1142	11.5	0.4271263501607
5	1152	11.6	-0.20940008270554
5	1162	11.7	-0.067524840240374
5	1172	11.8	-0.010902752005499
5	1182	11.9	0.29935349219013
5	1192	12	-0.49280987333042
5	1202	12.1	0.60390267537443
5	1212	12.2	-0.23274944033474
5	1222	12.3	0.29592222184874
5	1232	12.4	-0.73369033802301
5	1242	12.5	0.023949549347186
5	1252	12.6	0.44086620139421
5	1262	12.7	0.23272443383469
5	1272	12.8	-0.83221129188317
5	1282	12.9	0.75629206253218
5	1292	13	-0.97888530311174
5	1302	13.1	0.75509965138043
5	1312	13.2	-0.38194221302401
5	1322	13.3	-0.20600627171806
5	1332	13.4	1.0496480657486
5	1342	13.5	-0.10858851806262
5	1352	13.6	-0.68346826874187
5	1362	13.7	-0.27962845743168
5	1372	13.8	0.21357085830534
5	1382	13.9	0.75082959891297
5	1392	14	-1.1386005771812
5	1402	14.1	-0.0058688061544743
5	1412	14.2	0.12774579566905
5	1422	14.3	0.53240495130883
5	1432	14.4	-0.053265125490718
5	1442	14.5	-0.60727773474063
5	1452	14.6	1.1973603172461
5	1462	14.7	-0.71387007262093
5	1472	14.8	0.19979219534434
5	1482	14.9	-0.37453567767514
5	1492	15	0.93505868171341
5	1502	15.1	-0.024960151617428
5	1512	15.2	-0.52328007225878
5	1522	15.3	0.20657515060154
5	1532	15.4	-0.90581370231227
5	1542	15.5	1.1172072156565
5	1552	15.6	-0.31102227570955
5	1562	15.7	0.082295550592271
5	1572	15.8	-0.24017933802678
5	1582	15.9	0.47081556853371
5	1592	16	-0.74091351355893
5	1602	16.1	0.48188141684516
5	1612	16.2	-0.73124053580688
5	1622	16.3	0.60607677621302
5	1632	16.4	-0.65516422984658
5	1642	16.5	1.1103143634042
5	1652	16.6	-0.19847702179103
5	1662	16.7	-0.61834498203826
5	1672	16.8	0.16546822981908
5	1682	16.9	-0.0018363576615243
5	1692	17	-0.38805145018269
5	1702	17.1	0.77962699474302
5	1712	17.2	-0.31665331081022
5	1722	17.3	-0.018562819552592
5	1732	17.4	-0.51151737475301
5	1742	17.5	1.0696171857649
5	1752	17.6	-1.0753822378116
5	1762	17.7	0.44877445187886
5	1772	17.8	0.64068421109113
5	1782	17.9	-1.1000388245564
5	1792	18	0.84705092394724
5	1802	18.1	-0.053105508186846
5	1812	18.2	0.40197592915501
5	1822	18.3	-0.85546977685301
5	1832	18.4	-0.22741121377329
5	1842	18.5	0.92370748228859
5	1852	18.6	-0.66998915954027
5	1862	18.7	-0.089898977056144
5	1872	18.8	-0.16257660160772
5	1882	18.9	0.71757404054516
5	1892	19	0.03207870465701
5	1902	19.1	0.10600044110326
5	1912	19.2	-0.27901820463594
5	1922	19.3	-0.24529983578251
5	1932	19.4	0.0437988835154
5	1942	19.5	0.69252811369953
5	1952	19.6	-0.18828278305008
5	1962	19.7	-0.86319943806156
5	1972	19.8	0.59687151235995
5	1982	19.9	0.47464639774987
5	1992	20	-0.18427016553467
5	2002	20.1	-0.69078720884864
5	2012	20.2	0.14065757540521
5	2022	20.3	0.38949356644878
5	2032	20.4	-0.56384810579473
5	2042	20.5	-0.040893761534235
5	2052	20.6	0.58073286439758
5	2062	20.7	-0.87582574621774
5	2072	20.8	0.68757062538058
5	2082	20.9	0.23989540133627
5	2092	21	-0.65955961719155
5	2102	21.1	0.23393416220788
5	2112	21.2	0.2340767749585
5	2122	21.3	-0.25472674269693
5	2132	21.4	-0.39519540169277
5	2142	21.5	0.42092243414373
5	2152	21.6	-0.086669932259262
5	2162	21.7	0.5405912843533
5	2172	21.8	-0.86901464022233
5	2182	21.9	-0.079552951944031
5	2192	22	0.35450146726795
5	2202	22.1	0.30280925265981
5	2212	22.2	-0.0026940593961555
5	2222	22.3	-0.51637421445921
5	2232	22.4	-0.171810935135
5	2242	22.5	0.3628191403579
5	2252	22.6	0.75826057777739
5	2262	22.7	-0.2356055542128
5	2272	22.8	-0.61046277624556
5	2282	22.9	-0.060806352156213
5	2292	23	0.52257098117842
5	2302	23.1	0.019908723887063
5	2312	23.2	-0.36261333986186
5	2322	23.3	-0.26736336073373
5	2332	23.4	0.82069900352508
5	2342	23.5	-0.4309195810929
5	2352	23.6	0.34847090689002
5	2362	23.7	-0.73907213564961
5	2372	23.8	-0.10878511678893
5	2382	23.9	0.35475001523736
5	2392	24	0.13528646056074
5	2402	24.1	-0.17782595744357
5	2412	24.2	0.085261627449675
5	2422	24.3	0.20584724040237
5	2432	24.4	-0.041446429188383
5	2442	24.5	-0.54974060449748
5	2452	24.6	0.94321580161338
5	2462	24.7	-0.53749432540496
5	2472	24.8	0.32385717567522
5	2482	24.9	-0.037681477330622
5	2492	25	-0.25343957217412
5	2502	25.1	0.016139947366902
5	2512	25.2	0.17098340392113
5	2522	25.3	0.59237661720253
5	2532	25.4	-0.58622068411204
5	2542	25.5	0.2191245838301
5	2552	25.6	-0.53884963248855
5	2562	25.7	0.072671293700104
5	2572	25.8	0.48383729490453
5	2582	25.9	-0.0027125879423906
5	2592	26	-0.12140000090003
5	2602	26.1	-0.3049191611586
5	2612	26.2	-0.17050073188731
5	2622	26.3	0.41652147870046
5	2632	26.4	-0.58458854029887
5	2642	26.5	0.9658715593163
5	2652	26.6	0.042393921199242
5	2662	26.7	-0.25404465822501
5	2672	26.8	0.26768097358289
5	2682	26.9	-0.62086833242791
5	2692	27	0.28069372125898
5	2702	27.1	-0.30787392808122
5	2712	27.2	0.05077346023171
5	2722	27.3	-0.029261700948702
5	2732	27.4	0.70291021068115
5	2742	27.5	-0.8054484381806
5	2752	27.6	-0.41048923572525
5	2762	27.7	0.41191603911575
5	2772	27.8	0.43043783979954
5	2782	27.9	-0.14354754795786
5	2792	28	0.27320247732572
5	2802	28.1	-0.87786909027493
5	2812	28.2	0.98186750402675
5	2822	28.3	-0.29418735939544
5	2832	28.4	0.35139252855441
5	2842	28.5	-0.44018649053758
5	2852	28.6	-0.71263051091229
5	2862	28.7	0.11975454038474
5	2872	28.8	0.82105715852233
5	2882	28.9	-0.70960898220076
5	2892	29	0.34992291685196
5	2902	29.1	-0.21692588874139
5	2912	29.2	0.33275113543493
5	2922	29.3	0.45200907324908
5	2932	29.4	0.00085514227393446
5	2942	29.5	-1.0658875866094
5	2952	29.6	0.73732223818077
5	2962	29.7	-0.47050852919927
5	2972	29.8	0.31848976472393
5	2982	29.9	-0.68847718054894
5	2992	30	0.20501893493346
5	3002	30.1	0.89919937271624
5	3012	30.2	-0.98175927146805
5	3022	30.3	0.047478188783856
5	3032	30.4	1.0797366789309
5	3042	30.5	-0.16241361093709
5	3052	30.6	-0.44956927460152
5	3062	30.7	-0.13941735234109
5	3072	30.8	0.58332566437311
5	3082	30.9	0.055935796210527
5	3092	31	-0.85180034651422
5	3102	31.1	-0.089644371857851
5	3112	31.2	-0.022002585208973
5	3122	31.3	0.07489863228983
5	3132	31.4	0.51469890668525
5	3142	31.5	-0.20501522589477
5	3152	31.6	0.55786660951561
5	3162	31.7	-0.34737392887472
5	3172	31.8	0.4861491846852
5	3182	31.9	-0.04672798500394
5	3192	32	-1.1874303564429
5	3202	32.1	0.37069003954528
5	3212	32.2	0.42137942560949
5	3222	32.3	-0.10432750573383
5	3232	32.4	0.04350750634913
5	3242	32.5	-0.39257430871949
5	3252	32.6	0.87290774006398
5	3262	32.7	-1.0605324771721
5	3272	32.8	0.65115209419744
5	3282	32.9	-0.79303303612395
5	3292	33	1.2465616054367
5	3302	33.1	-1.0909279856132
5	3312	33.2	0.81257930181458
5	3322	33.3	0.28473673812112
5	3332	33.4	-0.97915690136141
5	3342	33.5	0.52641373053191
5	3352	33.6	-0.75938910017722
5	3362	33.7	0.27837284673005
5	3372	33.8	-0.026011291798191
5	3382	33.9	0.75188044125682
5	3392	34	-0.21810638005846
5	3402	34.1	-0.236122623086
5	3412	34.2	0.040933959232667
5	3422	34.3	0.56577424283603
5	3432	34.4	-0.37004126952962
5	3442	34.5	0.18068516834177
5	3452	34.6	0.026658134651356
5	3462	34.7	0.2092590160435
5	3472	34.8	-0.19820423824711
5	3482	34.9	-0.80952444260475
5	3492	35	0.42932074416896
5	3502	35.1	0.31138418151528
5	3512	35.2	-0.8458427631529
5	3522	35.3	0.68798766855618
5	3532	35.4	-0.77839849416634
5	3542	35.5	0.020849995827312
5	3552	35.6	0.41577695258894
5	3562	35.7	-0.12500999127514
5	3572	35.8	0.14008668249005
5	3582	35.9	0.73426143554972
5	3592	36	-0.97734692133965
5	3602	36.1	0.8046351189958
5	3612	36.2	-0.43593177848962
5	3622	36.3	-0.15788774678949
5	3632	36.4	0.74244085235989
5	3642	36.5	-0.6849160844693
5	3652	36.6	-0.15843034004792
5	3662	36.7	0.599566841498
5	3672	36.8	-0.98085465496407
5	3682	36.9	0.075637112068954
5	3692	37	0.86703690807337
5	3702	37.1	-0.45071444408968
5	3712	37.2	-0.084662065305743
5	3722	37.3	0.18649516713339
5	3732	37.4	-0.42724323875735
5	3742	37.5	0.35668290415778
5	3752	37.6	-0.20921454995406
5	3762	37.7	0.026938886847354
5	3772	37.8	-0.30467806123198
5	3782	37.9	0.84830820120406
5	3792	38	-0.31498667269478
5	3802	38.1	0.2028277792968
5	3812	38.2	0.24157973502295
5	3822	38.3	0.0033107722876835
5	3832	38.4	-0.016379310213992
5	3842	38.5	0.047125283465732
5	3852	38.6	-0.042323271185154
5	3862	38.7	-0.94330992687027
5	3872	38.8	0.48723851367829
5	3882	38.9	-0.22097044412511
5	3892	39	0.37367428597065
5	3902	39.1	-0.04985469284005
5	3912	39.2	-0.6237112479517
5	3922	39.3	0.96566867241634
5	3932	39.4	-0.58906908449714
5	3942	39.5	0.55404467484912
5	3952	39.6	0.21977919042111
5	3962	39.7	0.035446325968955
5	3972	39.8	0.0020940762246013
5	3982	39.9	-0.49139778260145
5	3992	40	-0.069447400211331
5	4002	40.1	0.228854377917
5	4012	40.2	-0.73997128636112
5	4022	40.3	0.24005939478521
5	4032	40.4	-0.36407917593603
5	4042	40.5	0.77824831895995
5	4052	40.6	-0.31187790650876
5	4062	40.7	0.56947051421741
5	4072	40.8	-0.47176362928003
5	4082	40.9	0.67316606258974
5	4092	41	-1.0789153105812
5	4102	41.1	1.0235731379362
5	4112	41.2	-0.8795603849925
5	4122	41.3	0.08377429656683
5	4132	41.4	0.26103538412134
5	4142	41.5	0.032369332993412
5	4152	41.6	-0.29040015784556
5	4162	41.7	0.18265307792461
5	4172	41.8	-0.091605607955714
5	4182	41.9	-0.37651409811808
5	4192	42	0.23656666469762
5	4202	42.1	-0.35833461713047
5	4212	42.2	0.67709428600502
5	4222	42.3	0.32838026848623
5	4232	42.4	-0.31085293511861
5	4242	42.5	-0.26918265421408
5	4252	42.6	-0.31634185083679
5	4262	42.7	0.83602442401464
5	4272	42.8	0.16393254431893
5	4282	42.9	0.15154024097139
5	4292	43	-0.27113881376572
5	4302	43.1	-0.68790712757036
5	4312	43.2	-0.16016877775549
5	4322	43.3	0.73003873704003
5	4332	43.4	-0.75973018221557
5	4342	43.5	0.67724941184277
5	4352	43.6	-0.34101692102848
5	4362	43.7	0.074707726971219
5	4372	43.8	0.34272438823248
5	4382	43.9	-0.65827513053083
5	4392	44	0.40473844504451
5	4402	44.1	-0.14205185372848
5	4412	44.2	0.81760444815735
5	4422	44.3	-1.1343738993397
5	4432	44.4	0.7290275681531
5	4442	44.5	0.049813643400576
5	4452	44.6	-0.19748235531154
5	4462	44.7	-0.48437388087621
5	4472	44.8	-0.11347808411813
5	4482	44.9	0.90961223740599
5	4492	45	-0.64251656520646
5	4502	45.1	-0.35478586433456
5	4512	45.2	0.64566045163666
5	4522	45.3	-0.3007660505595
5	4532	45.4	0.26530355180149
5	4542	45.5	0.34827122173738
5	4552	45.6	-0.74520126674326
5	4562	45.7	-0.20622052515389
5	4572	45.8	0.93330739524681
5	4582	45.9	-0.65183816556821
5	4592	46	-0.19427434252574
5	4602	46.1	0.81426274683327
5	4612	46.2	-0.077675977675256
5	4622	46.3	0.13049454931171
5	4632	46.4	-0.96738054542804
5	4642	46.5	0.57102518803443
5	4652	46.6	0.060383876180268
5	4662	46.7	0.57991552108433
5	4672	46.8	-0.89169744055255
5	4682	46.9	0.65534786570353
5	4692	47	0.069908507820209
5	4702	47.1	-0.35228851020801
5	4712	47.2	-0.39748372996691
5	4722	47.3	0.46315386258065
5	4732	47.4	-0.35372279342266
5	4742	47.5	0.23749571593946
5	4752	47.6	0.32330309208483
5	4762	47.7	-0.081572363409244
5	4772	47.8	0.11852163672447
5	4782	47.9	-0.52042396473698
5	4792	48	-0.28703469554891
5	4802	48.1	-0.073157937196093
5	4812	48.2	0.1518089695135
5	4822	48.3	0.81841189747212
5	4832	48.4	-0.72451013394165
5	4842	48.5	0.20470870414282
5	4852	48.6	0.31263096667825
5	4862	48.7	0.18827333520168
5	4872	48.8	-0.055692991288367
5	4882	48.9	-0.70453604997603
5	4892	49	0.016101043624808
5	4902	49.1	0.40093892533331
5	4912	49.2	-0.087217640504242
5	4922	49.3	-0.13295244458131
5	4932	49.4	-0.35750939596909
5	4942	49.5	0.85429330451877
5	4952	49.6	-0.028061698586654
5	4962	49.7	0.078023398737415
5	4972	49.8	-0.026144441566416
5	4982	49.9	-0.42002663712484
5	4992	50	0.47219019082839
5	5002	50.1	-0.30001357637811
5	5012	50.2	-0.47640830343589
5	5022	50.3	-0.28385667803231
5	5032	50.4	1.1829726815224
5	5042	50.5	-0.9553339726757
5	5052	50.6	0.023830319219265
5	5062	50.7	-0.0021702029276582
5	5072	50.8	0.85288770566692
5	5082	50.9	-1.0544606551761
5	5092	51	0.8921500186436
5	5102	51.1	0.17423647756221
5	5112	51.2	-0.86558157650288
5	5122	51.3	0.25618052878418
5	5132	51.4	-0.23335167302285
5	5142	51.5	0.1913829918718
5	5152	51.6	0.70051986719481
5	5162	51.7	-1.1912182717118
5	5172	51.8	0.9786131621571
5	5182	51.9	-0.10788765351752
5	5192	52	0.0068022308172644
5	5202	52.1	0.059912148746655
5	5212	52.2	-0.56736488833558
5	5222	52.3	0.75006017072592
5	5232	52.4	0.048432347620846
5	5242	52.5	0.06059125969184
5	5252	52.6	-0.70098548776002
5	5262	52.7	-0.48604410514237
5	5272	52.8	1.1963760223938
5	5282	52.9	-0.85887941375841
5	5292	53	-0.21205801817125
5	5302	53.1	0.062250739731837
5	5312	53.2	-0.25892948068211
5	5322	53.3	0.91337912853341
5	5332	53.4	-0.54829408545046
5	5342	53.5	0.15221000001766
5	5352	53.6	0.5262126536574
5	5362	53.7	0.15297872174997
5	5372	53.8	-0.58296965961343
5	5382	53.9	0.0347956336336
5	5392	54	-0.12326539827043
5	5402	54.1	-0.5161624060711
5	5412	54.2	0.24693887645846
5	5422	54.3	-0.1156520157587
5	5432	54.4	0.35103871428873
5	5442	54.5	0.34881145802792
5	5452	54.6	0.15568294029219
5	5462	54.7	-0.966117502423
5	5472	54.8	0.65832174262031
5	5482	54.9	0.29050734918563
5	5492	55	-0.84131854739969
5	5502	55.1	-0.091583807743163
5	5512	55.2	0.59416575650683
5	5522	55.3	-0.58384230465162
5	5532	55.4	0.29356151828541
5	5542	55.5	-0.10873386189342
5	5552	55.6	0.40695593412966
5	5562	55.7	-0.18757489027919
5	5572	55.8	-0.10153027730993
5	5582	55.9	-0.21546176734848
5	5592	56	0.48899206388743
5	5602	56.1	0.26665592773352
5	5612	56.2	-0.71698873189746
5	5622	56.3	-0.005711519182654
5	5632	56.4	0.85098173497247
5	5642	56.5	-0.55059481421488
5	5652	56.6	-0.20208411975762
5	5662	56.7	0.98811590550465
5	5672	56.8	-1.2493283546064
5	5682	56.9	0.81513270316648
5	5692	57	-0.66959914960901
5	5702	57.1	0.92841959684158
5	5712	57.2	-0.82197152585724
5	5722	57.3	-0.26182355908677
5	5732	57.4	-0.004163761599898
5	5742	57.5	0.65866056606172
5	5752	57.6	-0.35775908746292
5	5762	57.7	0.33303170814179
5	5772	57.8	0.64134624060245
5	5782	57.9	-0.82605173420163
5	5792	58	0.48099100419787
5	5802	58.1	-0.12883671675809
5	5812	58.2	-0.054479799955161
5	5822	58.3	0.35566942763982
5	5832	58.4	-0.3787206186913
5	5842	58.5	-0.51206208041403
5	5852	58.6	0.68155868707692
5	5862	58.7	0.14039208039176
5	5872	58.8	-0.274669755972
5	5882	58.9	-0.1432426331332
5	5892	59	0.50786058160011
5	5902	59.1	-0.13475803574547
5	5912	59.2	-0.98329744439106
5	5922	59.3	1.147711743624
5	5932	59.4	-0.40075880177319
5	5942	59.5	-0.59289233461023
5	5952	59.6	0.38087498480454
5	5962	59.7	-0.52482135370376
5	5972	59.8	0.81810818791858
5	5982	59.9	-0.80239790154156
5	5992	60	0.2235504446784
5	6002	60.1	-0.15298754123506
5	6012	60.2	0.64373800759203
5	6022	60.3	-0.47147739736829
5	6032	60.4	0.53920869491996
5	6042	60.5	0.033964139129949
5	6052	60.6	-0.086259888857576
5	6062	60.7	0.41391678189392
5	6072	60.8	-0.28694832646288
5	6082	60.9	-0.13703338147607
5	6092	61	-0.47837219887878
5	6102	61.1	0.70588133290876
5	6112	61.2	-0.90217242846265
5	6122	61.3	1.0318428895436
5	6132	61.4	-0.25066947899759
5	6142	61.5	0.3534480712144
5	6152	61.6	-1.1692765417975
5	6162	61.7	0.29545919403901
5	6172	61.8	0.92513976085463
5	6182	61.9	0.0032772259786995
5	6192	62	-0.67864968746434
5	6202	62.1	-0.30824959431776
5	6212	62.2	0.60579833406955
5	6222	62.3	0.20492600526193
5	6232	62.4	-0.95668736379594
5	6242	62.5	1.0443392850924
5	6252	62.6	-0.22243082288188
5	6262	62.7	0.20932559259236
5	6272	62.8	-0.76415142870975
5	6282	62.9	0.0069732279749601
5	6292	63	-0.17988917969632
5	6302	63.1	0.7345739470329
5	6312	63.2	-0.24281508554704
5	6322	63.3	0.015091161732563
5	6332	63.4	-0.431073573092
5	6342	63.5	0.25319545089733
5	6352	63.6	-0.35390349237712
5	6362	63.7	-0.040233608032594
5	6372	63.8	0.62597261865157
5	6382	63.9	-0.452413638751
5	6392	64	0.81964304437861
5	6402	64.1	-0.22591177599971
5	6412	64.2	0.01844481679143
5	6422	64.3	0.16205382328483
5	6432	64.4	-0.5985880784225
5	6442	64.5	0.69752910104583
5	6452	64.6	-0.54743375312537
5	6462	64.7	0.22734214102382
5	6472	64.8	-0.24223671886137
5	6482	64.9	0.29356135060077
5	6492	65	-0.25531532755121
5	6502	65.1	0.0030861865729293
5	6512	65.2	-0.088987667392964
5	6522	65.3	-0.20629533338358
5	6532	65.4	0.31364581887608
5	6542	65.5	-0.32969316497912
5	6552	65.6	-0.20411232043987
5	6562	65.7	0.73985089757478
5	6572	65.8	-0.19489616616628
5	6582	65.9	0.06956563240383
5	6592	66	-0.58102644113823
5	6602	66.1	0.83943522623741
5	6612	66.2	-0.42664843383246
5	6622	66.3	-0.36296448328066
5	6632	66.4	0.91281909395473
5	6642	66.5	0.038387580052941
5	6652	66.6	-0.78414932540618
5	6662	66.7	-0.048044594167713
5	6672	66.8	0.6375234269537
5	6682	66.9	-0.7437310284935
5	6692	67	-0.08915389582981
5	6702	67.1	0.090828086412529
5	6712	67.2	0.12486295183187
5	6722	67.3	0.5485175382346
5	6732	67.4	0.10537177568768
5	6742	67.5	-0.25407952179666
5	6752	67.6	0.39514035875907
5	6762	67.7	-0.67306280517951
5	6772	67.8	0.7512849020306
5	6782	67.9	-0.34207384027539
5	6792	68	-0.80499609436373
5	6802	68.1	0.67755592027677
5	6812	68.2	0.30860386623537
5	6822	68.3	-0.082665787055163
5	6832	68.4	-0.75677900114098
5	6842	68.5	0.41513691972941
5	6852	68.6	-0.60489981656428
5	6862	68.7	1.1447164723883
5	6872	68.8	-0.87173638695386
5	6882	68.9	-0.11000227474142
5	6892	69	0.40167044650296
5	6902	69.1	0.53802082457114
5	6912	69.2	-0.51030441981275
5	6922	69.3	-0.06413789493962
5	6932	69.4	-0.47303638134618
5	6942	69.5	0.74866894281005
5	6952	69.6	-0.23607994976921
5	6962	69.7	-0.11587275350465
5	6972	69.8	0.21186811230145
5	6982	69.9	-0.70832562574651
5	6992	70	1.0209178136894
5	7002	70.1	-0.61289578003343
5	7012	70.2	0.2213650357211
5	7022	70.3	0.57190511070658
5	7032	70.4	-0.97277119099161
5	7042	70.5	0.45921918663662
5	7052	70.6	-0.16383508292495
5	7062	70.7	0.060336345154823
5	7072	70.8	0.45519470649303
5	7082	70.9	-0.48920354659202
5	7092	71	0.51005257172509
5	7102	71.1	-0.69883208810349
5	7112	71.2	0.041508324490849
5	7122	71.3	0.48342701843939
5	7132	71.4	-0.34011575325859
5	7142	71.5	0.53347193798984
5	7152	71.6	-0.25587145846803
5	7162	71.7	-0.087088189180946
5	7172	71.8	0.31936032702216
5	7182	71.9	-1.0522093864158
5	7192	72	1.0354963583639
5	7202	72.1	-0.035439074062751
5	7212	72.2	0.075034121773214
5	7222	72.3	-1.0069430980366
5	7232	72.4	0.42258003333117
5	7242	72.5	0.045651364023804
5	7252	72.6	0.58700951861681
5	7262	72.7	-0.47404662736227
5	7272	72.8	-0.58972328610253
5	7282	72.9	0.037054295046275
5	7292	73	1.0387905713404
5	7302	73.1	-0.48832187533847
5	7312	73.2	-0.44430685299446
5	7322	73.3	0.09907406948038
5	7332	73.4	-0.19885233177337
5	7342	73.5	0.62153733356393
5	7352	73.6	0.39723563389853
5	7362	73.7	-1.0537604220212
5	7372	73.8	0.62106007193215
5	7382	73.9	-0.34283488483634
5	7392	74	0.28184565624688
5	7402	74.1	-0.29432180281727
5	7412	74.2	0.15525243270677
5	7422	74.3	0.32821972316597
5	7432	74.4	-0.50508090648801
5	7442	74.5	-0.05269481674766
5	7452	74.6	0.9486225573113
5	7462	74.7	-0.79168969064483
5	7472	74.8	-0.12393717074303
5	7482	74.9	0.63879018838051
5	7492	75	-0.68502620211802
5	7502	75.1	0.78835208881646
5	7512	75.2	0.19600410754794
5	7522	75.3	-1.0226125556277
5	7532	75.4	0.63453690498136
5	7542	75.5	-0.84614457157439
5	7552	75.6	0.94419146676081
5	7562	75.7	-0.29285535532981
5	7572	75.8	-0.058875182154559
5	7582	75.9	-0.11382375750692
5	7592	76	-0.47155838359615
5	7602	76.1	0.12479835904671
5	7612	76.2	0.38988474714568
5	7622	76.3	0.13076419921127
5	7632	76.4	0.46768119775226
5	7642	76.5	-1.1107275247108
5	7652	76.6	0.42925477933608
5	7662	76.7	0.059705533436478
5	7672	76.8	-0.37345289776567
5	7682	76.9	0.054932146496149
5	7692	77	0.86207530330867
5	7702	77.1	-0.97657487255056
5	7712	77.2	-0.10866155289115
5	7722	77.3	0.22997740576976
5	7732	77.4	0.94967958158811
5	7742	77.5	-0.096737412619383
5	7752	77.6	0.084443512605503
5	7762	77.7	-0.69477268082554
5	7772	77.8	-0.0061222826596463
5	7782	77.9	0.30572571756785
5	7792	78	-0.71612218706871
5	7802	78.1	1.1525598894572
5	7812	78.2	-1.1362435862888
5	7822	78.3	0.66652849293312
5	7832	78.4	-0.030349861900305
5	7842	78.5	0.24530250390526
5	7852	78.6	-0.60971595279408
5	7862	78.7	-0.15774455924983
5	7872	78.8	0.13884042641148
5	7882	78.9	0.92161335672717
5	7892	79	-0.35578585404437
5	7902	79.1	-0.84759566956201
5	7912	79.2	1.0909747850616
5	7922	79.3	-0.30627675165888
5	7932	79.4	-0.11506277923473
5	7942	79.5	0.11332332694437
5	7952	79.6	-0.045587662933393
5	7962	79.7	0.48807956348174
5	7972	79.8	-0.6701768803643
5	7982	79.9	0.45060191468799
5	7992	80	-0.85816296786067
5	8002	80.1	0.57732764359095
5	8012	80.2	-0.17551955252419
5	8022	80.3	-0.51092193874066
5	8032	80.4	0.3237276347587
5	8042	80.5	0.75485179866664
5	8052	80.6	-0.66243144741748
5	8062	80.7	-0.43696114206686
5	8072	80.8	1.1008705890504
5	8082	80.9	-1.0023136886302
5	8092	81	1.0106992346468
5	8102	81.1	-0.47077526035721
5	8112	81.2	0.5176555393264
5	8122	81.3	-0.35195557328407
5	8132	81.4	0.31221891590391
5	8142	81.5	-0.19007513499815
5	8152	81.6	-0.0057579057757096
5	8162	81.7	-0.49047884116881
5	8172	81.8	-0.29256274353244
5	8182	81.9	1.0483698966214
5	8192	82	-0.63608472673224
5	8202	82.1	0.65879380512051
5	8212	82.2	-0.64670943915843
5	8222	82.3	0.10956289167517
5	8232	82.4	-0.28734713166486
5	8242	82.5	0.75628526736981
5	8252	82.6	-0.61947184060699
5	8262	82.7	0.38044485133138
5	8272	82.8	0.28531840341167
5	8282	82.9	-0.24530430061276
5	8292	83	-0.46668804981746
5	8302	83.1	0.4250486870529
5	8312	83.2	-0.67326721940187
5	8322	83.3	0.83204396259969
5	8332	83.4	-0.31872275071219
5	8342	83.5	0.47344746566377
5	8352	83.6	-0.62268507280386
5	8362	83.7	0.48820258225316
5	8372	83.8	-1.1260020035785
5	8382	83.9	0.47210724141916
5	8392	84	0.48597751134075
5	8402	84.1	-0.94848625059239
5	8412	84.2	0.77991292851511
5	8422	84.3	-0.80082835434006
5	8432	84.4	1.2280909733847
5	8442	84.5	-0.47241278793663
5	8452	84.6	0.1286823854549
5	8462	84.7	0.19124718639066
5	8472	84.8	-0.86913447056428
5	8482	84.9	0.2505849402165
5	8492	85	-0.21873940799853
5	8502	85.1	0.41173274316826
5	8512	85.2	-0.19463445586151
5	8522	85.3	-0.45420130551793
5	8532	85.4	0.80769958375022
5	8542	85.5	0.39363765537274
5	8552	85.6	-0.32168381246741
5	8562	85.7	-0.61162548935972
5	8572	85.8	-0.024182225391272
5	8582	85.9	0.66746894128155
5	8592	86	0.28333670797295
5	8602	86.1	-0.22226285766813
5	8612	86.2	-0.57480064742265
5	8622	86.3	0.027388909412522
5	8632	86.4	0.36630792350046
5	8642	86.5	0.17506587994284
5	8652	86.6	-0.50422809999436
5	8662	86.7	-0.041506610112272
5	8672	86.8	-0.33932597106322
5	8682	86.9	0.53244175233413
5	8692	87	-0.43762108248195
5	8702	87.1	0.55880646642766
5	8712	87.2	-0.095665688999027
5	8722	87.3	-0.074112782510909
5	8732	87.4	0.16490945680999
5	8742	87.5	0.18301772237752
5	8752	87.6	-0.69616030533798
5	8762	87.7	0.15078016105111
5	8772	87.8	-0.041147435386684
5	8782	87.9	0.42038062391804
5	8792	88	-0.041973059414886
5	8802	88.1	0.11257776354906
5	8812	88.2	-0.79086471949704
5	8822	88.3	0.18231995606328
5	8832	88.4	0.60514436280354
5	8842	88.5	-0.73034736332481
5	8852	88.6	0.68566344336141
5	8862	88.7	0.4569840434473
5	8872	88.8	-0.90047795136925
5	8882	88.9	0.65787236778995
5	8892	89	-0.28139336721505
5	8902	89.1	0.13073328258471
5	8912	89.2	-0.76539450059645
5	8922	89.3	0.1590132472338
5	8932	89.4	0.72505289730618
5	8942	89.5	-0.94673533097378
5	8952	89.6	0.78485111917836
5	8962	89.7	-0.76337547444272
5	8972	89.8	0.3533791213529
5	8982	89.9	-0.27014875134917
5	8992	90	0.010241706506342
5	9002	90.1	0.78066799272783
5	9012	90.2	0.22814530530013
5	9022	90.3	-1.1322367771994
5	9032	90.4	0.97560522316492
5	9042	90.5	-0.010236661741523
5	9052	90.6	0.027503358107062
5	9062	90.7	0.15906469190959
5	9072	90.8	-0.49868411258796
5	9082	90.9	-0.59987627230583
5	9092	91	0.077258903626358
5	9102	91.1	0.85553315498398
5	9112	91.2	-0.16209338535553
5	9122	91.3	-0.4311590274796
5	9132	91.4	0.39589009489866
5	9142	91.5	0.42494539241307
5	9152	91.6	-1.1158818608616
5	9162	91.7	0.24182328514289
5	9172	91.8	0.8019602025859
5	9182	91.9	-0.99827464746777
5	9192	92	0.32577306942549
5	9202	92.1	0.46629524191374
5	9212	92.2	0.18150846688076
5	9222	92.3	-0.32011446442919
5	9232	92.4	0.0062560069141782
5	9242	92.5	-6.7080208090431e-05
5	9252	92.6	0.064858718193115
5	9262	92.7	-0.55169840850866
5	9272	92.8	0.089274527970709
5	9282	92.9	0.57500078598967
5	9292	93	-0.72504575678611
5	9302	93.1	0.81078614171126
5	9312	93.2	-0.43170466297305
5	9322	93.3	0.071034549758764
5	9332	93.4	0.19896403970197
5	9342	93.5	-0.010693823010648
5	9352	93.6	-0.75594201935456
5	9362	93.7	0.060805088165203
5	9372	93.8	0.63351412408519
5	9382	93.9	0.14836736235303
5	9392	94	-0.65084306837523
5	9402	94.1	0.30680114568675
5	9412	94.2	-0.068863344960839
5	9422	94.3	-0.50338904515375
5	9432	94.4	0.96338565708137
5	9442	94.5	-0.56222397754901
5	9452	94.6	0.11112217924094
5	9462	94.7	-0.41440140258054
5	9472	94.8	0.45194055379831
5	9482	94.9	-0.54673692814539
5	9492	95	0.76885514450261
5	9502	95.1	-0.52257686618251
5	9512	95.2	0.94398837978954
5	9522	95.3	-0.8774416364264
5	9532	95.4	0.71596949447414
5	9542	95.5	-1.0648771568667
5	9552	95.6	1.0869475962361
5	9562	95.7	-1.1213133784943
5	9572	95.8	0.37242832439954
5	9582	95.9	0.3329245140776
5	9592	96	-0.33442556937228
5	9602	96.1	0.82966304183941
5	9612	96.2	-0.70314222930467
5	9622	96.3	0.4146407024702
5	9632	96.4	-0.4928468841128
5	9642	96.5	0.67541801086627
5	9652	96.6	-0.38370951609686
5	9662	96.7	0.039038346544835
5	9672	96.8	-0.36216803577261
5	9682	96.9	0.73422418958508
5	9692	97	-0.3211478566751
5	9702	97.1	-0.29352916090286
5	9712	97.2	0.65531147904696
5	9722	97.3	-0.36760880814402
5	9732	97.4	-0.7506833412917
5	9742	97.5	0.084332167287329
5	9752	97.6	1.0698368698824
5	9762	97.7	-1.1639682941604
5	9772	97.8	1.2330422885483
5	9782	97.9	-0.68585957989562
5	9792	98	-0.56249486268499
5	9802	98.1	0.91617458658291
5	9812	98.2	0.16424913320225
5	9822	98.3	-0.5768780347891
5	9832	98.4	0.43358653127214
5	9842	98.5	-0.82947649147826
5	9852	98.6	0.88560204464009
5	9862	98.7	-0.2485658853082
5	9872	98.8	-0.22513277616817
5	9882	98.9	0.036184369283738
5	9892	99	-0.55077544446103
5	9902	99.1	0.91532859492581
5	9912	99.2	-0.0017629738431424
5	9922	99.3	-0.23716581580231
5	9932	99.4	-0.66902020783161
5	9942	99.5	0.73886999334206
5	9952	99.6	0.48908104510048
5	9962	99.7	-0.28979093870149
5	9972	99.8	-0.83151931916362
5	9982	99.9	0.49683051791508
5	9992	100	-0.26356519430411
5	10002	100.1	0.51769642077851
5	10012	100.2	0.042389298067427
5	10022	100.3	-0.12383954741527
5	10032	100.4	-0.67837683067189
5	10042	100.5	0.48086057128383
5	10052	100.6	0.64798226538116
5	10062	100.7	-0.94129420809914
5	10072	100.8	0.16244592170697
5	10082	100.9	0.37976789486127
5	10092	101	0.005154189048362
5	10102	101.1	-0.77300087485931
5	10112	101.2	-0.055851067649186
5	10122	101.3	0.13624334926718
5	10132	101.4	0.90186478558461
5	10142	101.5	0.15585194884334
5	10152	101.6	-1.1086305100704
5	10162	101.7	0.84219260867684
5	10172	101.8	-0.099181070132168
5	10182	101.9	-0.15105981028174
5	10192	102	-0.57602716332767
5	10202	102.1	1.0199870719807
5	10212	102.2	-0.53017090745271
5	10222	102.3	0.21316837221384
5	10232	102.4	-0.21079878741876
5	10242	102.5	-0.29830921194517
5	10252	102.6	0.45925148923416
5	10262	102.7	-0.38179353063459
5	10272	102.8	0.19555321629159
5	10282	102.9	-0.1199841384776
5	10292	103	-0.41901997302194
5	10302	103.1	0.30443280460315
5	10312	103.2	-0.23703400206287
5	10322	103.3	0.89432013288604
5	10332	103.4	-0.61384793331381
5	10342	103.5	0.43604117243085
5	10352	103.6	-0.38652805227319
5	10362	103.7	-0.048379622004013
5	10372	103.8	0.16624548439868
5	10382	103.9	-0.43013545537832
5	10392	104	0.78851714346094
5	10402	104.1	-0.3522934208857
5	10412	104.2	0.51403223800008
5	10422	104.3	-0.17476030860564
5	10432	104.4	-0.74568433044476
5	10442	104.5	1.0738880333723
5	10452	104.6	-0.78626799557824
5	10462	104.7	-0.097864042967544
5	10472	104.8	0.53390133231876
5	10482	104.9	0.37928721082864
5	10492	105	-0.58803628671448
5	10502	105.1	0.11380282326137
5	10512	105.2	0.4525971765397
5	10522	105.3	-0.65781275862825
5	10532	105.4	-0.035786248743541
5	10542	105.5	-0.47326027483216
5	10552	105.6	0.72924793057609
5	10562	105.7	0.35315406466836
5	10572	105.8	-0.53717950053979
5	10582	105.9	0.12579738805069
5	10592	106	0.32800921569578
5	10602	106.1	0.16810864617582
5	10612	106.2	-0.52155276893171
5	10622	106.3	0.10776564993428
5	10632	106.4	-0.73262911618219
5	10642	106.5	0.36912301336415
5	10652	106.6	0.79783531506546
5	10662	106.7	-0.35172326196918
5	10672	106.8	-0.89673500554635
5	10682	106.9	0.98684839524793
5	10692	107	-0.62548690862023
5	10702	107.1	0.74774763865864
5	10712	107.2	0.021172896190542
5	10722	107.3	-0.62104101006408
5	10732	107.4	0.37357368154918
5	10742	107.5	-0.52714236867615
5	10752	107.6	0.20305539604742
5	10762	107.7	-0.17274866783989
5	10772	107.8	-0.067847923119579
5	10782	107.9	-0.29212712883016
5	10792	108	0.72799166850746
5	10802	108.1	0.50201348455154
5	10812	108.2	-0.29169498374685
5	10822	108.3	-0.54614648513962
5	10832	108.4	0.25003780857659
5	10842	108.5	-0.18919206475836
5	10852	108.6	-0.48319735284895
5	10862	108.7	0.49834576374849
5	10872	108.8	-0.31860221149397
5	10882	108.9	-0.1676377041964
5	10892	109	0.062373545719332
5	10902	109.1	1.167294684425
5	10912	109.2	-0.84553711372426
5	10922	109.3	-0.037956865131861
5	10932	109.4	0.33256123592146
5	10942	109.5	-0.48491632188671
5	10952	109.6	0.16716265031139
5	10962	109.7	0.22787024348506
5	10972	109.8	-0.18042845316231
5	10982	109.9	0.40902346745135
5	10992	110	0.39632432423531
5	11002	110.1	-0.99026220156812
5	11012	110.2	-0.16729865586385
5	11022	110.3	1.0689750665333
5	11032	110.4	-0.57877830632499
5	11042	110.5	0.13054778857622
5	11052	110.6	-0.71383783055936
5	11062	110.7	0.61254605890721
5	11072	110.8	0.17790433668996
5	11082	110.9	-0.4041095786495
5	11092	111	-0.14652679471766
5	11102	111.1	0.93051867908798
5	11112	111.2	-0.48115742846857
5	11122	111.3	0.30322152741718
5	11132	111.4	-0.77878413340077
5	11142	111.5	0.54147945565639
5	11152	111.6	-0.16746167347304
5	11162	111.7	-0.10942937384822
5	11172	111.8	-0.34316121153534
5	11182	111.9	0.00039527141488804
5	11192	112	0.0089100932003916
5	11202	112.1	0.33966490044257
5	11212	112.2	0.3776797181694
5	11222	112.3	0.25329439300112
5	11232	112.4	-0.35225250825754
5	11242	112.5	-0.74900175502989
5	11252	112.6	0.56671261237934
5	11262	112.7	-0.42527989691589
5	11272	112.8	0.32512069328224
5	11282	112.9	0.15466377187984
5	11292	113	0.16037409547717
5	11302	113.1	-0.70588947681244
5	11312	113.2	0.49428408122623
5	11322	113.3	0.00097326126414998
5	11332	113.4	0.54659986230543
5	11342	113.5	-1.0431027132552
5	11352	113.6	0.31539147549775
5	11362	113.7	-0.19396017417314
5	11372	113.8	0.70561154771131
5	11382	113.9	-0.88551730548495
5	11392	114	1.2029030106962
5	11402	114.1	-1.1398483260767
5	11412	114.2	1.0447898070793
5	11422	114.3	0.10408387843054
5	11432	114.4	-0.091514267353325
5	11442	114.5	-0.088845373364173
5	11452	114.6	-0.18423068579288
5	11462	114.7	-0.094440787588219
5	11472	114.8	0.18537985337897
5	11482	114.9	-0.91729027898982
5	11492	115	0.50616744719445
5	11502	115.1	0.34158047123348
5	11512	115.2	-0.78822291293182
5	11522	115.3	0.96965256712863
5	11532	115.4	-0.54553104441148
5	11542	115.5	-0.39805708397179
5	11552	115.6	0.37487831881734
5	11562	115.7	0.19700500650799
5	11572	115.8	0.27085616225378
5	11582	115.9	-0.87078169146555
5	11592	116	0.42508481128607
5	11602	116.1	0.54685384307522
5	11612	116.2	0.01866841304583
5	11622	116.3	-0.66982156904416
5	11632	116.4	0.42313249728178
5	11642	116.5	-0.13602260213812
5	11652	116.6	-0.24084349568
5	11662	116.7	0.71375356751958
5	11672	116.8	-0.37026457702741
5	11682	116.9	-0.43570470837874
5	11692	117	-0.27889009993526
5	11702	117.1	0.86267380970533
5	11712	117.2	-0.8204220402753
5	11722	117.3	1.0905402391218
5	11732	117.4	-0.51290207356214
5	11742	117.5	0.48647466509138
5	11752	117.6	-0.59496814471206
5	11762	117.7	0.59349363232034
5	11772	117.8	-0.53766627933367
5	11782	117.9	-0.56298446517903
5	11792	118	0.94038146857638
5	11802	118.1	-0.72217772034929
5	11812	118.2	0.39666026737542
5	11822	118.3	-0.60229223975913
5	11832	118.4	0.9236635543639
5	11842	118.5	-0.63053948380983
5	11852	118.6	-0.055413182545472
5	11862	118.7	0.24214827460238
5	11872	118.8	0.0077135952655283
5	11882	118.9	0.28412803595419
5	11892	119	-0.020954642840678
5	11902	119.1	-0.88061600967773
4	12	0.2	20.042930199869
4	22	0.3	20.027025382554
4	32	0.4	20.010245453268
4	42	0.5	20.041640761851
4	52	0.6	20.00846706942
4	62	0.7	20.04916518694
4	72	0.8	20.009857274157
4	82	0.9	20.064924876417
4	92	1	20.038936719468
4	102	1.1	20.036033765038
4	112	1.2	20.070030377931
4	122	1.3	20.063113662703
4	132	1.4	20.081320501317
4	142	1.5	20.004069509772
4	152	1.6	20.112627313156
4	162	1.7	19.994723840673
4	172	1.8	20.084554681713
4	182	1.9	20.070152602228
4	192	2	20.057903535485
4	202	2.1	20.017075745654
4	212	2.2	20.01441806556
4	222	2.3	20.051243660201
4	232	2.4	20.057602967718
4	242	2.5	20.046154206712
4	252	2.6	20.068937976889
4	262	2.7	19.99967243768
4	272	2.8	20.011309760052
4	282	2.9	20.110765312368
4	292	3	20.076138498988
4	302	3.1	20.108673191394
4	312	3.2	20.035737656048
4	322	3.3	20.117371608114
4	332	3.4	20.072128600143
4	342	3.5	20.011759420431
4	352	3.6	19.995569829938
4	362	3.7	20.018839621604
4	372	3.8	20.101754398935
4	382	3.9	20.006898421117
4	392	4	20.006888657361
4	402	4.1	19.992779615424
4	412	4.2	20.058430954798
4	422	4.3	20.016109386701
4	432	4.4	20.015881602175
4	442	4.5	20.060007682836
4	452	4.6	20.052337927537
4	462	4.7	20.018531207165
4	472	4.8	20.031745660624
4	482	4.9	20.104624324911
4	492	5	20.026317755294
4	502	5.1	20.036810267791
4	512	5.2	20.044337427139
4	522	5.3	20.101364072885
4	532	5.4	20.05014148033
4	542	5.5	19.99719304058
4	552	5.6	20.021379969344
4	562	5.7	20.052159717337
4	572	5.8	20.106232011165
4	582	5.9	20.066093947655
4	592	6	20.058431945045
4	602	6.1	20.085607770516
4	612	6.2	20.095776795209
4	622	6.3	20.019349620754
4	632	6.4	20.02420063687
4	642	6.5	20.060700456325
4	652	6.6	20.091848453628
4	662	6.7	20.046103586718
4	672	6.8	20.102421637475
4	682	6.9	20.117557326257
4	692	7	20.077861669464
4	702	7.1	20.039707384889
4	712	7.2	20.100542267708
4	722	7.3	20.04042755608
4	732	7.4	20.091098219883
4	742	7.5	20.039798580175
4	752	7.6	20.069756432853
4	762	7.7	19.997312750213
4	772	7.8	20.002662198721
4	782	7.9	20.03136336128
4	792	8	20.061506501357
4	802	8.1	20.073263972732
4	812	8.2	20.04030174996
4	822	8.3	20.063185846154
4	832	8.4	20.002694684833
4	842	8.5	20.029307944595
4	852	8.6	20.1070935543
4	862	8.7	20.112170689355
4	872	8.8	19.993924821082
4	882	8.9	20.033320327534
4	892	9	20.035091795814
4	902	9.1	20.032817076419
4	912	9.2	20.097781753803
4	922	9.3	20.092650266984
4	932	9.4	20.073440217874
4	942	9.5	20.103239581215
4	952	9.6	20.022410801947
4	962	9.7	20.078994314545
4	972	9.8	20.040982013328
4	982	9.9	20.072717599457
4	992	10	20.077743860418
4	1002	10.1	20.045874419126
4	1012	10.2	20.115004694681
4	1022	10.3	20.062981803259
4	1032	10.4	20.03754437309
4	1042	10.5	19.99151140186
4	1052	10.6	19.995336594996
4	1062	10.7	20.106734175114
4	1072	10.8	20.035137258538
4	1082	10.9	20.092846021384
4	1092	11	20.037442345982
4	1102	11.1	20.099029763548
4	1112	11.2	19.990611056471
4	1122	11.3	20.035095918132
4	1132	11.4	20.044359456813
4	1142	11.5	20.087072091829
4	1152	11.6	20.066132083558
4	1162	11.7	20.059379599534
4	1172	11.8	20.058289324334
4	1182	11.9	20.088224673553
4	1192	12	20.03894368622
4	1202	12.1	20.099333953757
4	1212	12.2	20.076059009724
4	1222	12.3	20.105651231909
4	1232	12.4	20.032282198106
4	1242	12.5	20.034677153041
4	1252	12.6	20.078763773181
4	1262	12.7	20.102036216564
4	1272	12.8	20.018815087376
4	1282	12.9	20.094444293629
4	1292	13	19.996555763318
4	1302	13.1	20.072065728456
4	1312	13.2	20.033871507153
4	1322	13.3	20.013270879982
4	1332	13.4	20.118235686556
4	1342	13.5	20.10737683475
4	1352	13.6	20.039030007876
4	1362	13.7	20.011067162133
4	1372	13.8	20.032424247963
4	1382	13.9	20.107507207855
4	1392	14	19.993647150137
4	1402	14.1	19.993060269521
4	1412	14.2	20.005834849088
4	1422	14.3	20.059075344219
4	1432	14.4	20.05374883167
4	1442	14.5	19.993021058196
4	1452	14.6	20.11275708992
4	1462	14.7	20.041370082658
4	1472	14.8	20.061349302193
4	1482	14.9	20.023895734425
4	1492	15	20.117401602597
4	1502	15.1	20.114905587435
4	1512	15.2	20.062577580209
4	1522	15.3	20.083235095269
4	1532	15.4	19.992653725038
4	1542	15.5	20.104374446603
4	1552	15.6	20.073272219033
4	1562	15.7	20.081501774092
4	1572	15.8	20.057483840289
4	1582	15.9	20.104565397142
4	1592	16	20.030474045787
4	1602	16.1	20.078662187471
4	1612	16.2	20.00553813389
4	1622	16.3	20.066145811512
4	1632	16.4	20.000629388527
4	1642	16.5	20.111660824867
4	1652	16.6	20.091813122688
4	1662	16.7	20.029978624485
4	1672	16.8	20.046525447466
4	1682	16.9	20.0463418117
4	1692	17	20.007536666682
4	1702	17.1	20.085499366156
4	1712	17.2	20.053834035075
4	1722	17.3	20.05197775312
4	1732	17.4	20.000826015645
4	1742	17.5	20.107787734221
4	1752	17.6	20.00024951044
4	1762	17.7	20.045126955628
4	1772	17.8	20.109195376737
4	1782	17.9	19.999191494281
4	1792	18	20.083896586676
4	1802	18.1	20.078586035857
4	1812	18.2	20.118783628773
4	1822	18.3	20.033236651088
4	1832	18.4	20.01049552971
4	1842	18.5	20.102866277939
4	1852	18.6	20.035867361985
4	1862	18.7	20.02687746428
4	1872	18.8	20.010619804119
4	1882	18.9	20.082377208173
4	1892	19	20.085585078639
4	1902	19.1	20.096185122749
4	1912	19.2	20.068283302286
4	1922	19.3	20.043753318707
4	1932	19.4	20.048133207059
4	1942	19.5	20.117386018429
4	1952	19.6	20.098557740124
4	1962	19.7	20.012237796318
4	1972	19.8	20.071924947554
4	1982	19.9	20.119389587329
4	1992	20	20.100962570775
4	2002	20.1	20.03188384989
4	2012	20.2	20.045949607431
4	2022	20.3	20.084898964076
4	2032	20.4	20.028514153496
4	2042	20.5	20.024424777343
4	2052	20.6	20.082498063783
4	2062	20.7	19.994915489161
4	2072	20.8	20.063672551699
4	2082	20.9	20.087662091833
4	2092	21	20.021706130113
4	2102	21.1	20.045099546334
4	2112	21.2	20.06850722383
4	2122	21.3	20.04303454956
4	2132	21.4	20.003515009391
4	2142	21.5	20.045607252805
4	2152	21.6	20.03694025958
4	2162	21.7	20.090999388015
4	2172	21.8	20.004097923993
4	2182	21.9	19.996142628798
4	2192	22	20.031592775525
4	2202	22.1	20.061873700791
4	2212	22.2	20.061604294851
4	2222	22.3	20.009966873406
4	2232	22.4	19.992785779892
4	2242	22.5	20.029067693928
4	2252	22.6	20.104893751706
4	2262	22.7	20.081333196284
4	2272	22.8	20.02028691866
4	2282	22.9	20.014206283444
4	2292	23	20.066463381562
4	2302	23.1	20.068454253951
4	2312	23.2	20.032192919964
4	2322	23.3	20.005456583891
4	2332	23.4	20.087526484244
4	2342	23.5	20.044434526134
4	2352	23.6	20.079281616823
4	2362	23.7	20.005374403258
4	2372	23.8	19.994495891579
4	2382	23.9	20.029970893103
4	2392	24	20.043499539159
4	2402	24.1	20.025716943415
4	2412	24.2	20.03424310616
4	2422	24.3	20.0548278302
4	2432	24.4	20.050683187281
4	2442	24.5	19.995709126831
4	2452	24.6	20.090030706993
4	2462	24.7	20.036281274452
4	2472	24.8	20.06866699202
4	2482	24.9	20.064898844287
4	2492	25	20.039554887069
4	2502	25.1	20.041168881806
4	2512	25.2	20.058267222198
4	2522	25.3	20.117504883918
4	2532	25.4	20.058882815507
4	2542	25.5	20.08079527389
4	2552	25.6	20.026910310641
4	2562	25.7	20.034177440011
4	2572	25.8	20.082561169502
4	2582	25.9	20.082289910708
4	2592	26	20.070149910618
4	2602	26.1	20.039657994502
4	2612	26.2	20.022607921313
4	2622	26.3	20.064260069183
4	2632	26.4	20.005801215153
4	2642	26.5	20.102388371085
4	2652	26.6	20.106627763205
4	2662	26.7	20.081223297382
4	2672	26.8	20.107991394741
4	2682	26.9	20.045904561498
4	2692	27	20.073973933624
4	2702	27.1	20.043186540816
4	2712	27.2	20.048263886839
4	2722	27.3	20.045337716744
4	2732	27.4	20.115628737812
4	2742	27.5	20.035083893994
4	2752	27.6	19.994034970421
4	2762	27.7	20.035226574333
4	2772	27.8	20.078270358313
4	2782	27.9	20.063915603517
4	2792	28	20.09123585125
4	2802	28.1	20.003448942222
4	2812	28.2	20.101635692625
4	2822	28.3	20.072216956685
4	2832	28.4	20.107356209541
4	2842	28.5	20.063337560487
4	2852	28.6	19.992074509396
4	2862	28.7	20.004049963434
4	2872	28.8	20.086155679286
4	2882	28.9	20.015194781066
4	2892	29	20.050187072752
4	2902	29.1	20.028494483877
4	2912	29.2	20.061769597421
4	2922	29.3	20.106970504746
4	2932	29.4	20.107056018973
4	2942	29.5	20.000467260312
4	2952	29.6	20.07419948413
4	2962	29.7	20.02714863121
4	2972	29.8	20.058997607683
4	2982	29.9	19.990149889628
4	2992	30	20.010651783121
4	3002	30.1	20.100571720393
4	3012	30.2	20.002395793246
4	3022	30.3	20.007143612124
4	3032	30.4	20.115117280018
4	3042	30.5	20.098875918924
4	3052	30.6	20.053918991464
4	3062	30.7	20.03997725623
4	3072	30.8	20.098309822667
4	3082	30.9	20.103903402288
4	3092	31	20.018723367637
4	3102	31.1	20.009758930451
4	3112	31.2	20.00755867193
4	3122	31.3	20.015048535159
4	3132	31.4	20.066518425827
4	3142	31.5	20.046016903238
4	3152	31.6	20.101803564189
4	3162	31.7	20.067066171302
4	3172	31.8	20.115681089771
4	3182	31.9	20.11100829127
4	3192	32	19.992265255626
4	3202	32.1	20.02933425958
4	3212	32.2	20.071472202141
4	3222	32.3	20.061039451568
4	3232	32.4	20.065390202203
4	3242	32.5	20.026132771331
4	3252	32.6	20.113423545337
4	3262	32.7	20.00737029762
4	3272	32.8	20.07248550704
4	3282	32.9	19.993182203427
4	3292	33	20.117838363971
4	3302	33.1	20.00874556541
4	3312	33.2	20.090003495591
4	3322	33.3	20.118477169403
4	3332	33.4	20.020561479267
4	3342	33.5	20.07320285232
4	3352	33.6	19.997263942303
4	3362	33.7	20.025101226976
4	3372	33.8	20.022500097796
4	3382	33.9	20.097688141922
4	3392	34	20.075877503916
4	3402	34.1	20.052265241607
4	3412	34.2	20.05635863753
4	3422	34.3	20.112936061814
4	3432	34.4	20.075931934861
4	3442	34.5	20.094000451695
4	3452	34.6	20.09666626516
4	3462	34.7	20.117592166765
4	3472	34.8	20.09777174294
4	3482	34.9	20.016819298679
4	3492	35	20.059751373096
4	3502	35.1	20.090889791248
4	3512	35.2	20.006305514933
4	3522	35.3	20.075104281788
4	3532	35.4	19.997264432372
4	3542	35.5	19.999349431954
4	3552	35.6	20.040927127213
4	3562	35.7	20.028426128086
4	3572	35.8	20.042434796335
4	3582	35.9	20.11586093989
4	3592	36	20.018126247756
4	3602	36.1	20.098589759655
4	3612	36.2	20.054996581806
4	3622	36.3	20.039207807127
4	3632	36.4	20.113451892363
4	3642	36.5	20.044960283916
4	3652	36.6	20.029117249912
4	3662	36.7	20.089073934061
4	3672	36.8	19.990988468565
4	3682	36.9	19.998552179772
4	3692	37	20.085255870579
4	3702	37.1	20.04018442617
4	3712	37.2	20.03171821964
4	3722	37.3	20.050367736353
4	3732	37.4	20.007643412477
4	3742	37.5	20.043311702893
4	3752	37.6	20.022390247898
4	3762	37.7	20.025084136582
4	3772	37.8	19.994616330459
4	3782	37.9	20.07944715058
4	3792	38	20.04794848331
4	3802	38.1	20.06823126124
4	3812	38.2	20.092389234742
4	3822	38.3	20.092720311971
4	3832	38.4	20.09108238095
4	3842	38.5	20.095794909296
4	3852	38.6	20.091562582178
4	3862	38.7	19.997231589491
4	3872	38.8	20.045955440858
4	3882	38.9	20.023858396446
4	3892	39	20.061225825043
4	3902	39.1	20.056240355759
4	3912	39.2	19.993869230964
4	3922	39.3	20.090436098205
4	3932	39.4	20.031529189756
4	3942	39.5	20.086933657241
4	3952	39.6	20.108911576283
4	3962	39.7	20.11245620888
4	3972	39.8	20.112665616502
4	3982	39.9	20.063525838242
4	3992	40	20.056581098221
4	4002	40.1	20.079466536012
4	4012	40.2	20.005469407376
4	4022	40.3	20.029475346855
4	4032	40.4	19.993067429261
4	4042	40.5	20.070892261157
4	4052	40.6	20.039704470506
4	4062	40.7	20.096651521928
4	4072	40.8	20.049475159
4	4082	40.9	20.116791765259
4	4092	41	20.008900234201
4	4102	41.1	20.111257547995
4	4112	41.2	20.023301509495
4	4122	41.3	20.031678939152
4	4132	41.4	20.057782477564
4	4142	41.5	20.061019410864
4	4152	41.6	20.031979395079
4	4162	41.7	20.050244702871
4	4172	41.8	20.041084142076
4	4182	41.9	20.003432732264
4	4192	42	20.027089398734
4	4202	42.1	19.991255937021
4	4212	42.2	20.058965365621
4	4222	42.3	20.09180339247
4	4232	42.4	20.060718098958
4	4242	42.5	20.033799833537
4	4252	42.6	20.002165648453
4	4262	42.7	20.085768090854
4	4272	42.8	20.102161345286
4	4282	42.9	20.117315369383
4	4292	43	20.090201488007
4	4302	43.1	20.02141077525
4	4312	43.2	20.005393897474
4	4322	43.3	20.078397771178
4	4332	43.4	20.002424752957
[...]
2	4832	48.4	387.7598923295
2	4842	48.5	387.7785885757
2	4852	48.6	387.79730392749
2	4862	48.7	387.81604845733
2	4872	48.8	387.83481055885
2	4882	48.9	387.8535674625
2	4892	49	387.87225861135
2	4902	49.1	387.89095126292
2	4912	49.2	387.90968133437
2	4922	49.3	387.92840326575
2	4932	49.4	387.94711278859
2	4942	49.5	387.96578894485
2	4952	49.6	387.98454483285
2	4962	49.7	388.00329810184
2	4972	49.8	388.0220586528
2	4982	49.9	388.04081676368
2	4992	50	388.05953567321
2	5002	50.1	388.07829865255
2	5012	50.2	388.09703363143
2	5022	50.3	388.11572414682
2	5032	50.4	388.13438816968
2	5042	50.5	388.15316260014
2	5052	50.6	388.17184786867
2	5062	50.7	388.1905353613
2	5072	50.8	388.20922265138
2	5082	50.9	388.22798954202
2	5092	51	388.24665801916
2	5102	51.1	388.26540976125
2	5112	51.2	388.28417776493
2	5122	51.3	388.30286498333
2	5132	51.4	388.32157611122
2	5142	51.5	388.34026546026
2	5152	51.6	388.35897267119
2	5162	51.7	388.37774526208
2	5172	51.8	388.39640667582
2	5182	51.9	388.41515942414
2	5192	52	388.43390210325
2	5202	52.1	388.45264541721
2	5212	52.2	388.47139432281
2	5222	52.3	388.49009027588
2	5232	52.4	388.50885623254
2	5242	52.5	388.52762670943
2	5252	52.6	388.54640284135
2	5262	52.7	388.56511354983
2	5272	52.8	388.58377889551
2	5282	52.9	388.60255589972
2	5292	53	388.62125274418
2	5302	53.1	388.63992979712
2	5312	53.2	388.65861265996
2	5322	53.3	388.67727135675
2	5332	53.4	388.69601529979
2	5342	53.5	388.7147080702
2	5352	53.6	388.73341504647
2	5362	53.7	388.7521711345
2	5372	53.8	388.77094150013
2	5382	53.9	388.78965745683
2	5392	54	388.80837666103
2	5402	54.1	388.82708436079
2	5412	54.2	388.84574388678
2	5422	54.3	388.86442645974
2	5432	54.4	388.88309823882
2	5442	54.5	388.90180278056
2	5452	54.6	388.92053987711
2	5462	54.7	388.93929150364
2	5472	54.8	388.95795296181
2	5482	54.9	388.97667586157
2	5492	55	388.99542587456
2	5502	55.1	389.01409736676
2	5512	55.2	389.03276031138
2	5522	55.3	389.05147870987
2	5532	55.4	389.07014261798
2	5542	55.5	389.08883392438
2	5552	55.6	389.10751508257
2	5562	55.7	389.12623422223
2	5572	55.8	389.1449358554
2	5582	55.9	389.16362801269
2	5592	56	389.18230006079
2	5602	56.1	389.20101774683
2	5612	56.2	389.21976032004
2	5622	56.3	389.23843597624
2	5632	56.4	389.25711109937
2	5642	56.5	389.27586564517
2	5652	56.6	389.29456880361
2	5662	56.7	389.31325310141
2	5672	56.8	389.3320296207
2	5682	56.9	389.35068953937
2	5692	57	389.3694255349
2	5702	57.1	389.38809903631
2	5712	57.2	389.40685918772
2	5722	57.3	389.425542624
2	5732	57.4	389.4415310584
2	5742	57.5	389.45774664383
2	5752	57.6	389.4740156536
2	5762	57.7	389.49025564533
2	5772	57.8	389.50652264945
2	5782	57.9	389.52284167355
2	5792	58	389.5390936961
2	5802	58.1	389.55538473212
2	5812	58.2	389.57166531811
2	5822	58.3	389.58794148522
2	5832	58.4	389.60424650088
2	5842	58.5	389.62052079829
2	5852	58.6	389.63675356204
2	5862	58.7	389.65304160742
2	5872	58.8	389.66934104008
2	5882	58.9	389.68561819412
2	5892	59	389.70188372966
2	5902	59.1	389.71819045808
2	5912	59.2	389.73448625619
2	5922	59.3	389.75070229847
2	5932	59.4	389.76701143232
2	5942	59.5	389.78328806039
2	5952	59.6	389.79951659861
2	5962	59.7	389.81577602982
2	5972	59.8	389.83199289247
2	5982	59.9	389.84827611236
2	5992	60	389.86449424927
2	6002	60.1	389.8807305185
2	6012	60.2	389.89695437881
2	6022	60.3	389.9132304531
2	6032	60.4	389.92946828558
2	6042	60.5	389.94574985359
2	6052	60.6	389.96203417645
2	6062	60.7	389.97831150272
2	6072	60.8	389.99462240203
2	6082	60.9	390.01091002679
2	6092	61	390.02718653669
2	6102	61.1	390.04342424554
2	6112	61.2	390.05971920884
2	6122	61.3	390.0759409964
2	6132	61.4	390.09224647735
2	6142	61.5	390.10853162635
2	6152	61.6	390.12484544373
2	6162	61.7	390.1410644204
2	6172	61.8	390.15730736194
2	6182	61.9	390.17362534211
2	6192	62	390.1899435881
2	6202	62.1	390.20620678841
2	6212	62.2	390.22244498641
2	6222	62.3	390.23873232108
2	6232	62.4	390.25503627742
2	6242	62.5	390.27126263628
2	6252	62.6	390.28757370211
2	6262	62.7	390.30386672645
2	6272	62.8	390.32017672931
2	6282	62.9	390.3364247514
2	6292	63	390.35267333909
2	6302	63.1	390.36890733586
2	6312	63.2	390.38520091436
2	6322	63.3	390.40147479799
2	6332	63.4	390.41774990567
2	6342	63.5	390.43399004871
2	6352	63.6	390.45025072859
2	6362	63.7	390.46648270315
2	6372	63.8	390.4817308183
2	6382	63.9	390.49777844198
2	6392	64	390.51378989275
2	6402	64.1	390.52986687839
2	6412	64.2	390.54592580117
2	6422	64.3	390.56198619871
2	6432	64.4	390.57805955332
2	6442	64.5	390.5940850476
2	6452	64.6	390.61016631309
2	6462	64.7	390.6262038083
2	6472	64.8	390.64225948073
2	6482	64.9	390.65829578504
2	6492	65	390.67435556116
2	6502	65.1	390.69039492344
2	6512	65.2	390.70643453248
2	6522	65.3	390.72246702648
2	6532	65.4	390.73848302606
2	6542	65.5	390.75452410331
2	6552	65.6	390.77053881982
2	6562	65.7	390.78653721645
2	6572	65.8	390.80259476813
2	6582	65.9	390.81863673682
2	6592	66	390.83468426766
2	6602	66.1	390.85068534231
2	6612	66.2	390.86675353431
2	6622	66.3	390.88278761349
2	6632	66.4	390.8987926717
2	6642	66.5	390.9148707147
2	6652	66.6	390.93095182699
2	6662	66.7	390.94697024234
2	6672	66.8	390.96298481626
2	6682	66.9	390.9790503636
2	6692	67	390.99505644565
2	6702	67.1	391.01105539937
2	6712	67.2	391.02706161528
2	6722	67.3	391.04307781466
2	6732	67.4	391.05913787096
2	6742	67.5	391.0752063523
2	6752	67.6	391.09125451862
2	6762	67.7	391.10733427853
2	6772	67.8	391.12336022346
2	6782	67.9	391.13944623765
2	6792	68	391.15550490119
2	6802	68.1	391.17149920098
2	6812	68.2	391.187547675
2	6822	68.3	391.20362082356
2	6832	68.4	391.21968736254
2	6842	68.5	391.23569339298
2	6852	68.6	391.25173261584
2	6862	68.7	391.26772347372
2	6872	68.8	391.28380585782
2	6882	68.9	391.29981854192
2	6892	69	391.31582243075
2	6902	69.1	391.33185843528
2	6912	69.2	391.34793745747
2	6922	69.3	391.36397567808
2	6932	69.4	391.38000877053
2	6942	69.5	391.39600404117
2	6952	69.6	391.41205917191
2	6962	69.7	391.4280954268
2	6972	69.8	391.44412241704
2	6982	69.9	391.46016634727
2	6992	70	391.47615364306
2	7002	70.1	391.49222256671
2	7012	70.2	391.50824248606
2	7022	70.3	391.52428010473
2	7032	70.4	391.54036345028
2	7042	70.5	391.55636901755
2	7052	70.6	391.57241130187
2	7062	70.7	391.58844048668
2	7072	70.8	391.60447449572
2	7082	70.9	391.62054490001
2	7092	71	391.63657618986
2	7102	71.1	391.65264826114
2	7112	71.2	391.66866445705
2	7122	71.3	391.68468397177
2	7132	71.4	391.70074213908
2	7142	71.5	391.7167731123
2	7152	71.6	391.73284673948
2	7162	71.7	391.74889990835
2	7172	71.8	391.76494611406
2	7182	71.9	391.78101785434
2	7192	72	391.79700546483
2	7202	72.1	391.81307586882
2	7212	72.2	391.82914343926
2	7222	72.3	391.84521700908
2	7232	72.4	391.86121006839
2	7242	72.5	391.87723691524
2	7252	72.6	391.89326741217
2	7262	72.7	391.90934484366
2	7272	72.8	391.92538437258
2	7282	72.9	391.94137674995
2	7292	73	391.95737209001
2	7302	73.1	391.97345048696
2	7312	73.2	391.98948983995
2	7322	73.3	392.00549366822
2	7332	73.4	392.021505418
2	7342	73.5	392.03750126846
2	7352	73.6	392.05354681417
2	7362	73.7	392.06962412101
2	7372	73.8	392.08561717404
2	7382	73.9	392.10165988416
2	7392	74	392.11767518278
2	7402	74.1	392.13371301648
2	7412	74.2	392.14972731758
2	7422	74.3	392.16575403193
2	7432	74.4	392.18180698922
2	7442	74.5	392.19807069629
2	7452	74.6	392.2164750339
2	7462	74.7	392.2349665711
2	7472	74.8	392.25338533435
2	7482	74.9	392.271792705
2	7492	75	392.29025879473
2	7502	75.1	392.30866191525
2	7512	75.2	392.32713750294
2	7522	75.3	392.34563110778
2	7532	75.4	392.36403071169
2	7542	75.5	392.38248864371
2	7552	75.6	392.40086879616
2	7562	75.7	392.41933574088
2	7572	75.8	392.43777576566
2	7582	75.9	392.45621037849
2	7592	76	392.47463452838
2	7602	76.1	392.49301533152
2	7612	76.2	392.51140760642
2	7622	76.3	392.52983572043
2	7632	76.4	392.54827585459
2	7642	76.5	392.5667589791
2	7652	76.6	392.58514000295
2	7662	76.7	392.60356048489
2	7672	76.8	392.62198645511
2	7682	76.9	392.64037809667
2	7692	77	392.65877478771
2	7702	77.1	392.67725072273
2	7712	77.2	392.69563688871
2	7722	77.3	392.71401306627
2	7732	77.4	392.73241038389
2	7742	77.5	392.75089499826
2	7752	77.6	392.76937072031
2	7762	77.7	392.78785420459
2	7772	77.8	392.80627382376
2	7782	77.9	392.82469288016
2	7792	78	392.84314003957
2	7802	78.1	392.86152137137
2	7812	78.2	392.88000864915
2	7822	78.3	392.89839148078
2	7832	78.4	392.91683558125
2	7842	78.5	392.9352768919
2	7852	78.6	392.95374075133
2	7862	78.7	392.97214856424
2	7872	78.8	392.99
2	7882	78.9	393.00996860877
2	7892	79	393.03044899844
2	7902	79.1	393.05089316444
2	7912	79.2	393.07125103409
2	7922	79.3	393.09171997928
2	7932	79.4	393.11215774147
2	7942	79.5	393.13258378877
2	7952	79.6	393.15302137387
2	7962	79.7	393.17345431755
2	7972	79.8	393.19393695413
2	7982	79.9	393.21435135791
2	7992	80	393.23481163888
2	8002	80.1	393.2551845476
2	8012	80.2	393.27561623585
2	8022	80.3	393.2960300539
2	8032	80.4	393.31639185341
2	8042	80.5	393.33678661263
2	8052	80.6	393.35725822566
2	8062	80.7	393.37766239449
2	8072	80.8	393.39802207494
2	8082	80.9	393.41849383845
2	8092	81	393.43886355329
2	8102	81.1	393.45933617056
2	8112	81.2	393.47976085673
2	8122	81.3	393.50023824703
2	8132	81.4	393.52067980364
2	8142	81.5	393.54115314822
2	8152	81.6	393.56160714066
2	8162	81.7	393.58206054688
2	8172	81.8	393.60246401591
2	8182	81.9	393.62283769823
2	8192	82	393.64331811834
2	8202	82.1	393.66373377669
2	8212	82.2	393.68421650889
2	8222	82.3	393.70463339758
2	8232	82.4	393.72506144122
2	8242	82.5	393.74546022915
2	8252	82.6	393.76593601683
2	8262	82.7	393.78634873416
2	8272	82.8	393.80680018577
2	8282	82.9	393.82728068652
2	8292	83	393.84773621209
2	8302	83.1	393.86814422269
2	8312	83.2	393.88859550882
2	8322	83.3	393.90897824752
2	8332	83.4	393.92944569921
2	8342	83.5	393.94988070074
2	8352	83.6	393.97036390543
2	8362	83.7	393.99078371261
2	8372	83.8	394.01125322522
2	8382	83.9	394.03160809607
2	8392	84	394.05201103361
2	8402	84.1	394.07246345005
2	8412	84.2	394.09281929814
2	8422	84.3	394.1132545516
2	8432	84.4	394.13360827023
2	8442	84.5	394.15408702462
2	8452	84.6	394.1745176812
2	8462	84.7	394.19496143933
2	8472	84.8	394.21542466894
2	8482	84.9	394.23579940926
2	8492	85	394.25619966241
2	8502	85.1	394.27657764502
2	8512	85.2	394.29699754742
2	8522	85.3	394.31739763349
2	8532	85.4	394.3377514759
2	8542	85.5	394.35818755273
2	8552	85.6	394.37866370702
2	8562	85.7	394.39910710969
2	8572	85.8	394.41948824086
2	8582	85.9	394.43986690997
2	8592	86	394.45844387334
2	8602	86.1	394.4770436336
2	8612	86.2	394.49562283759
2	8622	86.3	394.51414888044
2	8632	86.4	394.53267745639
2	8642	86.5	394.55123991077
2	8652	86.6	394.56981855635
2	8662	86.7	394.58835056776
2	8672	86.8	394.60687874038
2	8682	86.9	394.62537553002
2	8692	87	394.6439215632
2	8702	87.1	394.66242712244
2	8712	87.2	394.6809843636
2	8722	87.3	394.69953275699
2	8732	87.4	394.71807429597
2	8742	87.5	394.73663108681
2	8752	87.6	394.75520480427
2	8762	87.7	394.77371413648
2	8772	87.8	394.79223741378
2	8782	87.9	394.81075688551
2	8792	88	394.82931523666
2	8802	88.1	394.84786970588
2	8812	88.2	394.866434587
2	8822	88.3	394.88492632401
2	8832	88.4	394.90343492311
2	8842	88.5	394.92199948973
2	8852	88.6	394.94049650928
2	8862	88.7	394.95905694326
2	8872	88.8	394.97765964197
2	8882	88.9	394.99617905886
2	8892	89	395.01475931989
2	8902	89.1	395.03331355591
2	8912	89.2	395.05187988296
2	8922	89.3	395.07037542156
2	8932	89.4	395.08888566669
2	8942	89.5	395.10746296923
2	8952	89.6	395.12595271178
2	8962	89.7	395.14451504227
2	8972	89.8	395.16300677102
2	8982	89.9	395.18153118249
2	8992	90	395.20003060891
2	9002	90.1	395.21853098255
2	9012	90.2	395.23710355723
2	9022	90.3	395.25569723221
2	9032	90.4	395.27418619087
2	9042	90.5	395.29276537959
2	9052	90.6	395.31134362156
2	9062	90.7	395.32992440721
2	9072	90.8	395.34851990416
2	9082	90.9	395.36706927969
2	9092	91	395.38556317492
2	9102	91.1	395.40406421554
2	9112	91.2	395.42264438119
2	9122	91.3	395.44120955544
2	9132	91.4	395.45958470116
2	9142	91.5	395.47786031101
2	9152	91.6	395.49617461625
2	9162	91.7	395.51438730962
2	9172	91.8	395.53262202335
2	9182	91.9	395.55092976334
2	9192	92	395.56914660074
2	9202	92.1	395.58739310293
2	9212	92.2	395.60568206583
2	9222	92.3	395.62398755684
2	9232	92.4	395.64226389832
2	9242	92.5	395.66054080947
2	9252	92.6	395.67881771452
2	9262	92.7	395.69710052558
2	9272	92.8	395.71533309914
2	9282	92.9	395.73357380201
2	9292	93	395.75186686429
2	9302	93.1	395.77009390411
2	9312	93.2	395.78839477389
2	9322	93.3	395.80665633276
2	9332	93.4	395.82492436002
2	9342	93.5	395.84321050488
2	9352	93.6	395.86149567597
2	9362	93.7	395.8797120112
2	9372	93.8	395.89793388332
2	9382	93.9	395.91621344306
2	9392	94	395.93450651308
2	9402	94.1	395.95274031752
2	9412	94.2	395.96793021744
2	9422	94.3	395.93022300802
2	9432	94.4	395.89261047928
2	9442	94.5	395.85481675071
2	9452	94.6	395.81712876888
2	9462	94.7	395.77941988646
2	9472	94.8	395.74178894736
2	9482	94.9	395.70407300434
2	9492	95	395.61328777495
2	9502	95.1	395.4272551281
2	9512	95.2	395.24170675528
2	9522	95.3	395.05528358473
2	9532	95.4	394.86967354279
2	9542	95.5	394.6834000091
2	9552	95.6	394.49811330126
2	9562	95.7	394.16210572668
2	9572	95.8	393.80151232858
2	9582	95.9	393.44024714305
2	9592	96	393.07838142721
2	9602	96.1	392.7171189493
2	9612	96.2	392.3543599225
2	9622	96.3	391.82380199556
2	9632	96.4	391.26216074765
2	9642	96.5	390.70189786848
2	9652	96.6	390.13974601506
2	9662	96.7	389.57866730062
2	9672	96.8	389.01747940575
2	9682	96.9	388.45730440375
2	9692	97	387.74654434058
2	9702	97.1	386.92861472381
2	9712	97.2	386.11188130243
2	9722	97.3	385.29247734377
2	9732	97.4	384.47457147122
2	9742	97.5	383.6597247971
2	9752	97.6	382.844534451
2	9762	97.7	381.94652259736
2	9772	97.8	381.03838790647
2	9782	97.9	380.12465274533
2	9792	98	379.21403275405
2	9802	98.1	378.30596761086
2	9812	98.2	377.39374120852
2	9822	98.3	376.48076878766
2	9832	98.4	375.48437572259
2	9842	98.5	374.40837688701
2	9852	98.6	373.33682144164
2	9862	98.7	372.26052194929
2	9872	98.8	371.18555398981
2	9882	98.9	370.1117920353
2	9892	99	369.03783624616
2	9902	99.1	367.92033268652
2	9912	99.2	366.7469360707
2	9922	99.3	365.5735497546
2	9932	99.4	364.40154901942
2	9942	99.5	363.23345686455
2	9952	99.6	362.06104804977
2	9962	99.7	360.88578190346
2	9972	99.8	359.64570650622
2	9982	99.9	358.35118470911
2	9992	100	357.05344785444
2	10002	100.1	355.75741656583
2	10012	100.2	354.45803519358
2	10022	100.3	353.15837951444
2	10032	100.4	351.85952521779
2	10042	100.5	350.43429368322
2	10052	100.6	348.96787123125
2	10062	100.7	347.49670996317
2	10072	100.8	346.03243255658
2	10082	100.9	344.56696715243
2	10092	101	343.09872443427
2	10102	101.1	341.63044402256
2	10112	101.2	340.05662233762
2	10122	101.3	338.47761532585
2	10132	101.4	336.89753236003
2	10142	101.5	335.31032710109
2	10152	101.6	333.72189103319
2	10162	101.7	332.14221014852
2	10172	101.8	330.49835243549
2	10182	101.9	328.79937576266
2	10192	102	327.10167739689
2	10202	102.1	325.40885352149
2	10212	102.2	323.70739825251
2	10222	102.3	322.01042942643
2	10232	102.4	320.31165671464
2	10242	102.5	318.54598149765
2	10252	102.6	316.74716550765
2	10262	102.7	314.94422387993
2	10272	102.8	313.14471205446
2	10282	102.9	311.34344349712
2	10292	103	309.54325280475
2	10302	103.1	307.74682633447
2	10312	103.2	305.87777395107
2	10322	103.3	304.0065270993
2	10332	103.4	302.12691442188
2	10342	103.5	300.25304392179
2	10352	103.6	298.37509451942
2	10362	103.7	296.50076085394
2	10372	103.8	294.62180628369
2	10382	103.9	292.69710042137
2	10392	104	290.77652392253
2	10402	104.1	288.84837754344
2	10412	104.2	286.92361323287
2	10422	104.3	284.9939141374
2	10432	104.4	283.06589276654
2	10442	104.5	281.14186012121
2	10452	104.6	279.17357981406
2	10462	104.7	277.21299283796
2	10472	104.8	275.25336342401
2	10482	104.9	273.28850999011
2	10492	105	271.31994537621
2	10502	105.1	269.35713447203
2	10512	105.2	267.39223942239
2	10522	105.3	265.42097760664
2	10532	105.4	263.45616174867
2	10542	105.5	261.49169656291
2	10552	105.6	259.53186889095
2	10562	105.7	257.56489526247
2	10572	105.8	255.59446105016
2	10582	105.9	253.62929070107
2	10592	106	251.66288765371
2	10602	106.1	249.69327041883
2	10612	106.2	247.7220058744
2	10622	106.3	245.75585206565
2	10632	106.4	243.788642253
2	10642	106.5	241.82861152938
2	10652	106.6	239.86496374098
2	10662	106.7	237.89349790301
2	10672	106.8	235.92547862831
2	10682	106.9	233.96624652886
2	10692	107	231.99734422612
2	10702	107.1	230.03457111769
2	10712	107.2	228.06447077267
2	10722	107.3	226.09416295281
2	10732	107.4	224.12994076154
2	10742	107.5	222.16205789306
2	10752	107.6	220.19934053316
2	10762	107.7	218.23463341783
2	10772	107.8	216.27161907997
2	10782	107.9	214.3320004855
2	10792	108	212.39949610761
2	10802	108.1	210.45995631518
2	10812	108.2	208.51556499336
2	10822	108.3	206.57399265317
2	10832	108.4	204.63769834992
2	10842	108.5	202.69898764589
2	10852	108.6	200.76210532075
2	10862	108.7	198.82989268324
2	10872	108.8	196.91972598093
2	10882	108.9	195.03894164126
2	10892	109	193.15973283933
2	10902	109.1	191.27993782158
2	10912	109.2	189.38917202106
2	10922	109.3	187.50635297479
2	10932	109.4	185.62389066494
2	10942	109.5	183.73830278866
2	10952	109.6	181.85727238334
2	10962	109.7	179.98874246605
2	10972	109.8	178.15648253593
2	10982	109.9	176.32587113656
2	10992	110	174.49152258957
2	11002	110.1	172.65355292392
2	11012	110.2	170.8246310424
2	11022	110.3	168.99723772788
2	11032	110.4	167.16007744899
2	11042	110.5	165.32820532627
2	11052	110.6	163.52884756848
2	11062	110.7	161.78724202995
2	11072	110.8	160.04030006243
2	11082	110.9	158.29180821331
2	11092	111	156.54683691916
2	11102	111.1	154.80314214916
2	11112	111.2	153.05134081022
2	11122	111.3	151.30373125803
2	11132	111.4	149.55348007566
2	11142	111.5	147.86731353189
2	11152	111.6	146.18021002276
2	11162	111.7	144.49451444682
2	11172	111.8	142.8097388978
2	11182	111.9	141.12784847495
2	11192	112	139.44595472886
2	11202	112.1	137.76398607121
2	11212	112.2	136.0791616826
2	11222	112.3	134.39800498353
2	11232	112.4	132.74935354279
2	11242	112.5	131.1035909829
2	11252	112.6	129.46397110977
2	11262	112.7	127.81970353317
2	11272	112.8	126.17892374705
2	11282	112.9	124.53547759257
2	11292	113	122.89076301502
2	11302	113.1	121.24473318309
2	11312	113.2	119.61075353487
2	11322	113.3	118.00839281226
2	11332	113.4	116.40602431134
2	11342	113.5	114.7992873766
2	11352	113.6	113.20088693347
2	11362	113.7	111.59996587721
2	11372	113.8	110.00059495341
2	11382	113.9	108.39558477215
2	11392	114	106.79765165771
2	11402	114.1	105.20338215301
2	11412	114.2	103.64916896443
2	11422	114.3	102.08683681921
2	11432	114.4	100.52369584862
2	11442	114.5	98.961266026204
2	11452	114.6	97.399526612265
2	11462	114.7	95.83921883648
2	11472	114.8	94.279644950569
2	11482	114.9	92.718630496438
2	11492	115	91.181101738835
2	11502	115.1	89.670016246733
2	11512	115.2	88.156355998007
2	11522	115.3	86.64863719599
2	11532	115.4	85.133609371411
2	11542	115.5	83.622693636922
2	11552	115.6	82.114778367039
2	11562	115.7	80.604037348859
2	11572	115.8	79.091811351331
2	11582	115.9	77.586039486818
2	11592	116	76.088323558223
2	11602	116.1	74.58742466267
2	11612	116.2	73.082431013156
2	11622	116.3	71.577297577556
2	11632	116.4	70.077179658547
2	11642	116.5	68.573893391192
2	11652	116.6	67.063951543489
2	11662	116.7	65.522123080812
2	11672	116.8	63.974802811834
2	11682	116.9	62.430331455183
2	11692	117	60.889212524316
2	11702	117.1	59.350239446693
2	11712	117.2	57.804628731543
2	11722	117.3	56.265330557774
2	11732	117.4	54.717641482679
2	11742	117.5	53.170786692696
2	11752	117.6	51.610827653767
2	11762	117.7	50.055483354156
2	11772	117.8	48.495535751959
2	11782	117.9	46.939758439786
2	11792	118	45.388347792567
2	11802	118.1	43.829643283694
2	11812	118.2	42.276540187182
2	11822	118.3	40.720360482708
2	11832	118.4	39.16885232528
2	11842	118.5	37.610179975016
2	11852	118.6	36.056398265323
2	11862	118.7	34.50304635577
2	11872	118.8	32.947816276481
2	11882	118.9	31.39252636839
2	11892	119	29.835032683794
2	11902	119.1	28.277701529268
