file 43895822 1488834849                                        
version 2
run General-0-20170306-14:11:30-26893
attr configname General
attr datetime 20170306-14:11:30
attr experiment General
attr inifile omnetpp.ini
attr iterationvars ""
attr iterationvars2 $repetition=0
attr measurement ""
attr network com.liborio.cooperativepositioning.LocScenario
attr processid 26893
attr repetition 0
attr replication #0
attr resultdir results
attr runnumber 0
attr seedset 0
param **.coreDebug false
param **.debug false
param *.**.nic.mac1609_4.bitrate 18Mbps
param *.**.nic.mac1609_4.txPower 20mW
param *.**.nic.mac1609_4.useServiceChannel false
param *.**.nic.phy80211p.analogueModels "xmldoc(\"config_splm.xml\")"
param *.**.nic.phy80211p.decider "xmldoc(\"config_splm.xml\")"
param *.**.nic.phy80211p.sensitivity -89dBm
param *.**.nic.phy80211p.thermalNoise -110dBm
param *.**.nic.phy80211p.usePropagationDelay true
param *.**.nic.phy80211p.useThermalNoise true
param *.annotations.draw false
param *.connectionManager.alpha 2.0
param *.connectionManager.carrierFrequency "5.890e9 Hz"
param *.connectionManager.pMax 20mW
param *.connectionManager.sat -89dBm
param *.connectionManager.sendDirect true
param *.manager.autoShutdown true
param *.manager.host "\"localhost\""
param *.manager.launchConfig "xmldoc(\"dmat.launchd.xml\")"
param *.manager.margin 25
param *.manager.moduleDisplayString "\"\""
param *.manager.moduleName "\"node\""
param *.manager.moduleType "\"org.car2x.veins.nodes.Car\""
param *.manager.port 9999
param *.manager.updateInterval 0.1s
param *.node[*].appl.beaconInterval 0.1s
param *.node[*].appl.beaconPriority 3
param *.node[*].appl.dataOnSch false
param *.node[*].appl.dataPriority 2
param *.node[*].appl.debug false
param *.node[*].appl.headerLength "256 bit"
param *.node[*].appl.maxOffset 0.005s
param *.node[*].appl.sendBeacons true
param *.node[*].appl.sendData true
param *.node[*].applType "\"LocAppCom\""
param *.node[*].mobilityType "\"TraCIMobility\""
param *.node[*].mobilityType.debug true
param *.node[*].veinsmobility.x 0
param *.node[*].veinsmobility.y 0
param *.node[*].veinsmobility.z 1.895
param *.node[*].veinsmobilityType "\"org.car2x.veins.modules.mobility.traci.TraCIMobility\""
param *.node[*].veinsmobilityType.debug true
param *.playgroundSizeX 10000m
param *.playgroundSizeY 10000m
param *.playgroundSizeZ 50m
param *.world.use2D false
param *.world.useTorus false

vector 2  LocScenario.node[0].veinsmobility  posx  ETV
vector 3  LocScenario.node[0].veinsmobility  posy  ETV
vector 9  LocScenario.node[1].veinsmobility  posx  ETV
vector 10  LocScenario.node[1].veinsmobility  posy  ETV
vector 4  LocScenario.node[0].veinsmobility  speed  ETV
vector 11  LocScenario.node[1].veinsmobility  speed  ETV
vector 5  LocScenario.node[0].veinsmobility  acceleration  ETV
vector 6  LocScenario.node[0].veinsmobility  co2emission  ETV
vector 12  LocScenario.node[1].veinsmobility  acceleration  ETV
vector 13  LocScenario.node[1].veinsmobility  co2emission  ETV
vector 16  LocScenario.node[2].veinsmobility  posx  ETV
vector 17  LocScenario.node[2].veinsmobility  posy  ETV
vector 23  LocScenario.node[3].veinsmobility  posx  ETV
vector 24  LocScenario.node[3].veinsmobility  posy  ETV
vector 18  LocScenario.node[2].veinsmobility  speed  ETV
vector 25  LocScenario.node[3].veinsmobility  speed  ETV
vector 19  LocScenario.node[2].veinsmobility  acceleration  ETV
vector 20  LocScenario.node[2].veinsmobility  co2emission  ETV
vector 26  LocScenario.node[3].veinsmobility  acceleration  ETV
vector 27  LocScenario.node[3].veinsmobility  co2emission  ETV
vector 30  LocScenario.node[4].veinsmobility  posx  ETV
vector 31  LocScenario.node[4].veinsmobility  posy  ETV
vector 37  LocScenario.node[5].veinsmobility  posx  ETV
vector 38  LocScenario.node[5].veinsmobility  posy  ETV
vector 32  LocScenario.node[4].veinsmobility  speed  ETV
vector 39  LocScenario.node[5].veinsmobility  speed  ETV
vector 33  LocScenario.node[4].veinsmobility  acceleration  ETV
vector 34  LocScenario.node[4].veinsmobility  co2emission  ETV
vector 40  LocScenario.node[5].veinsmobility  acceleration  ETV
vector 41  LocScenario.node[5].veinsmobility  co2emission  ETV
vector 44  LocScenario.node[6].veinsmobility  posx  ETV
vector 45  LocScenario.node[6].veinsmobility  posy  ETV
vector 51  LocScenario.node[7].veinsmobility  posx  ETV
vector 52  LocScenario.node[7].veinsmobility  posy  ETV
vector 46  LocScenario.node[6].veinsmobility  speed  ETV
vector 53  LocScenario.node[7].veinsmobility  speed  ETV
vector 47  LocScenario.node[6].veinsmobility  acceleration  ETV
vector 48  LocScenario.node[6].veinsmobility  co2emission  ETV
vector 54  LocScenario.node[7].veinsmobility  acceleration  ETV
vector 55  LocScenario.node[7].veinsmobility  co2emission  ETV
vector 58  LocScenario.node[8].veinsmobility  posx  ETV
vector 59  LocScenario.node[8].veinsmobility  posy  ETV
vector 65  LocScenario.node[9].veinsmobility  posx  ETV
vector 66  LocScenario.node[9].veinsmobility  posy  ETV
vector 60  LocScenario.node[8].veinsmobility  speed  ETV
vector 67  LocScenario.node[9].veinsmobility  speed  ETV
vector 61  LocScenario.node[8].veinsmobility  acceleration  ETV
vector 62  LocScenario.node[8].veinsmobility  co2emission  ETV
vector 68  LocScenario.node[9].veinsmobility  acceleration  ETV
vector 69  LocScenario.node[9].veinsmobility  co2emission  ETV
vector 72  LocScenario.node[10].veinsmobility  posx  ETV
vector 73  LocScenario.node[10].veinsmobility  posy  ETV
vector 79  LocScenario.node[11].veinsmobility  posx  ETV
vector 80  LocScenario.node[11].veinsmobility  posy  ETV
vector 74  LocScenario.node[10].veinsmobility  speed  ETV
vector 81  LocScenario.node[11].veinsmobility  speed  ETV
vector 75  LocScenario.node[10].veinsmobility  acceleration  ETV
vector 76  LocScenario.node[10].veinsmobility  co2emission  ETV
vector 82  LocScenario.node[11].veinsmobility  acceleration  ETV
vector 83  LocScenario.node[11].veinsmobility  co2emission  ETV
vector 86  LocScenario.node[12].veinsmobility  posx  ETV
vector 87  LocScenario.node[12].veinsmobility  posy  ETV
vector 93  LocScenario.node[13].veinsmobility  posx  ETV
vector 94  LocScenario.node[13].veinsmobility  posy  ETV
vector 88  LocScenario.node[12].veinsmobility  speed  ETV
vector 95  LocScenario.node[13].veinsmobility  speed  ETV
vector 89  LocScenario.node[12].veinsmobility  acceleration  ETV
vector 90  LocScenario.node[12].veinsmobility  co2emission  ETV
vector 96  LocScenario.node[13].veinsmobility  acceleration  ETV
vector 97  LocScenario.node[13].veinsmobility  co2emission  ETV
vector 100  LocScenario.node[14].veinsmobility  posx  ETV
vector 101  LocScenario.node[14].veinsmobility  posy  ETV
vector 107  LocScenario.node[15].veinsmobility  posx  ETV
vector 108  LocScenario.node[15].veinsmobility  posy  ETV
vector 102  LocScenario.node[14].veinsmobility  speed  ETV
vector 109  LocScenario.node[15].veinsmobility  speed  ETV
vector 103  LocScenario.node[14].veinsmobility  acceleration  ETV
vector 104  LocScenario.node[14].veinsmobility  co2emission  ETV
vector 110  LocScenario.node[15].veinsmobility  acceleration  ETV
vector 111  LocScenario.node[15].veinsmobility  co2emission  ETV
vector 114  LocScenario.node[16].veinsmobility  posx  ETV
vector 115  LocScenario.node[16].veinsmobility  posy  ETV
vector 121  LocScenario.node[17].veinsmobility  posx  ETV
vector 122  LocScenario.node[17].veinsmobility  posy  ETV
vector 116  LocScenario.node[16].veinsmobility  speed  ETV
vector 123  LocScenario.node[17].veinsmobility  speed  ETV
vector 117  LocScenario.node[16].veinsmobility  acceleration  ETV
vector 118  LocScenario.node[16].veinsmobility  co2emission  ETV
vector 124  LocScenario.node[17].veinsmobility  acceleration  ETV
vector 125  LocScenario.node[17].veinsmobility  co2emission  ETV
vector 128  LocScenario.node[18].veinsmobility  posx  ETV
vector 129  LocScenario.node[18].veinsmobility  posy  ETV
vector 135  LocScenario.node[19].veinsmobility  posx  ETV
vector 136  LocScenario.node[19].veinsmobility  posy  ETV
vector 130  LocScenario.node[18].veinsmobility  speed  ETV
vector 137  LocScenario.node[19].veinsmobility  speed  ETV
vector 131  LocScenario.node[18].veinsmobility  acceleration  ETV
vector 132  LocScenario.node[18].veinsmobility  co2emission  ETV
vector 138  LocScenario.node[19].veinsmobility  acceleration  ETV
vector 139  LocScenario.node[19].veinsmobility  co2emission  ETV
vector 142  LocScenario.node[20].veinsmobility  posx  ETV
vector 143  LocScenario.node[20].veinsmobility  posy  ETV
vector 149  LocScenario.node[21].veinsmobility  posx  ETV
vector 150  LocScenario.node[21].veinsmobility  posy  ETV
vector 144  LocScenario.node[20].veinsmobility  speed  ETV
vector 151  LocScenario.node[21].veinsmobility  speed  ETV
vector 145  LocScenario.node[20].veinsmobility  acceleration  ETV
vector 146  LocScenario.node[20].veinsmobility  co2emission  ETV
vector 152  LocScenario.node[21].veinsmobility  acceleration  ETV
vector 153  LocScenario.node[21].veinsmobility  co2emission  ETV
vector 156  LocScenario.node[22].veinsmobility  posx  ETV
vector 157  LocScenario.node[22].veinsmobility  posy  ETV
vector 163  LocScenario.node[23].veinsmobility  posx  ETV
vector 164  LocScenario.node[23].veinsmobility  posy  ETV
vector 158  LocScenario.node[22].veinsmobility  speed  ETV
vector 165  LocScenario.node[23].veinsmobility  speed  ETV
vector 159  LocScenario.node[22].veinsmobility  acceleration  ETV
vector 160  LocScenario.node[22].veinsmobility  co2emission  ETV
vector 166  LocScenario.node[23].veinsmobility  acceleration  ETV
vector 167  LocScenario.node[23].veinsmobility  co2emission  ETV
vector 170  LocScenario.node[24].veinsmobility  posx  ETV
vector 171  LocScenario.node[24].veinsmobility  posy  ETV
vector 177  LocScenario.node[25].veinsmobility  posx  ETV
vector 178  LocScenario.node[25].veinsmobility  posy  ETV
vector 172  LocScenario.node[24].veinsmobility  speed  ETV
vector 179  LocScenario.node[25].veinsmobility  speed  ETV
vector 173  LocScenario.node[24].veinsmobility  acceleration  ETV
vector 174  LocScenario.node[24].veinsmobility  co2emission  ETV
vector 180  LocScenario.node[25].veinsmobility  acceleration  ETV
vector 181  LocScenario.node[25].veinsmobility  co2emission  ETV
vector 184  LocScenario.node[26].veinsmobility  posx  ETV
vector 185  LocScenario.node[26].veinsmobility  posy  ETV
vector 191  LocScenario.node[27].veinsmobility  posx  ETV
vector 192  LocScenario.node[27].veinsmobility  posy  ETV
vector 186  LocScenario.node[26].veinsmobility  speed  ETV
vector 193  LocScenario.node[27].veinsmobility  speed  ETV
vector 187  LocScenario.node[26].veinsmobility  acceleration  ETV
vector 188  LocScenario.node[26].veinsmobility  co2emission  ETV
vector 194  LocScenario.node[27].veinsmobility  acceleration  ETV
vector 195  LocScenario.node[27].veinsmobility  co2emission  ETV
vector 198  LocScenario.node[28].veinsmobility  posx  ETV
vector 199  LocScenario.node[28].veinsmobility  posy  ETV
vector 205  LocScenario.node[29].veinsmobility  posx  ETV
vector 206  LocScenario.node[29].veinsmobility  posy  ETV
vector 200  LocScenario.node[28].veinsmobility  speed  ETV
vector 207  LocScenario.node[29].veinsmobility  speed  ETV
vector 201  LocScenario.node[28].veinsmobility  acceleration  ETV
vector 202  LocScenario.node[28].veinsmobility  co2emission  ETV
vector 208  LocScenario.node[29].veinsmobility  acceleration  ETV
vector 209  LocScenario.node[29].veinsmobility  co2emission  ETV
vector 212  LocScenario.node[30].veinsmobility  posx  ETV
vector 213  LocScenario.node[30].veinsmobility  posy  ETV
vector 219  LocScenario.node[31].veinsmobility  posx  ETV
vector 220  LocScenario.node[31].veinsmobility  posy  ETV
vector 214  LocScenario.node[30].veinsmobility  speed  ETV
vector 221  LocScenario.node[31].veinsmobility  speed  ETV
vector 215  LocScenario.node[30].veinsmobility  acceleration  ETV
vector 216  LocScenario.node[30].veinsmobility  co2emission  ETV
vector 222  LocScenario.node[31].veinsmobility  acceleration  ETV
vector 223  LocScenario.node[31].veinsmobility  co2emission  ETV
vector 226  LocScenario.node[32].veinsmobility  posx  ETV
vector 227  LocScenario.node[32].veinsmobility  posy  ETV
vector 233  LocScenario.node[33].veinsmobility  posx  ETV
vector 234  LocScenario.node[33].veinsmobility  posy  ETV
vector 228  LocScenario.node[32].veinsmobility  speed  ETV
vector 235  LocScenario.node[33].veinsmobility  speed  ETV
vector 229  LocScenario.node[32].veinsmobility  acceleration  ETV
vector 230  LocScenario.node[32].veinsmobility  co2emission  ETV
vector 236  LocScenario.node[33].veinsmobility  acceleration  ETV
vector 237  LocScenario.node[33].veinsmobility  co2emission  ETV
vector 240  LocScenario.node[34].veinsmobility  posx  ETV
vector 241  LocScenario.node[34].veinsmobility  posy  ETV
vector 247  LocScenario.node[35].veinsmobility  posx  ETV
vector 248  LocScenario.node[35].veinsmobility  posy  ETV
vector 242  LocScenario.node[34].veinsmobility  speed  ETV
vector 249  LocScenario.node[35].veinsmobility  speed  ETV
vector 243  LocScenario.node[34].veinsmobility  acceleration  ETV
vector 244  LocScenario.node[34].veinsmobility  co2emission  ETV
vector 250  LocScenario.node[35].veinsmobility  acceleration  ETV
vector 251  LocScenario.node[35].veinsmobility  co2emission  ETV
vector 254  LocScenario.node[36].veinsmobility  posx  ETV
vector 255  LocScenario.node[36].veinsmobility  posy  ETV
vector 261  LocScenario.node[37].veinsmobility  posx  ETV
vector 262  LocScenario.node[37].veinsmobility  posy  ETV
vector 256  LocScenario.node[36].veinsmobility  speed  ETV
vector 263  LocScenario.node[37].veinsmobility  speed  ETV
vector 257  LocScenario.node[36].veinsmobility  acceleration  ETV
vector 258  LocScenario.node[36].veinsmobility  co2emission  ETV
vector 264  LocScenario.node[37].veinsmobility  acceleration  ETV
vector 265  LocScenario.node[37].veinsmobility  co2emission  ETV
vector 268  LocScenario.node[38].veinsmobility  posx  ETV
vector 269  LocScenario.node[38].veinsmobility  posy  ETV
vector 275  LocScenario.node[39].veinsmobility  posx  ETV
vector 276  LocScenario.node[39].veinsmobility  posy  ETV
vector 270  LocScenario.node[38].veinsmobility  speed  ETV
vector 277  LocScenario.node[39].veinsmobility  speed  ETV
vector 271  LocScenario.node[38].veinsmobility  acceleration  ETV
vector 272  LocScenario.node[38].veinsmobility  co2emission  ETV
vector 278  LocScenario.node[39].veinsmobility  acceleration  ETV
vector 279  LocScenario.node[39].veinsmobility  co2emission  ETV
vector 282  LocScenario.node[40].veinsmobility  posx  ETV
vector 283  LocScenario.node[40].veinsmobility  posy  ETV
vector 289  LocScenario.node[41].veinsmobility  posx  ETV
vector 290  LocScenario.node[41].veinsmobility  posy  ETV
vector 284  LocScenario.node[40].veinsmobility  speed  ETV
vector 291  LocScenario.node[41].veinsmobility  speed  ETV
vector 285  LocScenario.node[40].veinsmobility  acceleration  ETV
vector 286  LocScenario.node[40].veinsmobility  co2emission  ETV
vector 292  LocScenario.node[41].veinsmobility  acceleration  ETV
vector 293  LocScenario.node[41].veinsmobility  co2emission  ETV
vector 296  LocScenario.node[42].veinsmobility  posx  ETV
vector 297  LocScenario.node[42].veinsmobility  posy  ETV
vector 303  LocScenario.node[43].veinsmobility  posx  ETV
vector 304  LocScenario.node[43].veinsmobility  posy  ETV
vector 298  LocScenario.node[42].veinsmobility  speed  ETV
vector 305  LocScenario.node[43].veinsmobility  speed  ETV
vector 299  LocScenario.node[42].veinsmobility  acceleration  ETV
vector 300  LocScenario.node[42].veinsmobility  co2emission  ETV
vector 306  LocScenario.node[43].veinsmobility  acceleration  ETV
vector 307  LocScenario.node[43].veinsmobility  co2emission  ETV
vector 310  LocScenario.node[44].veinsmobility  posx  ETV
vector 311  LocScenario.node[44].veinsmobility  posy  ETV
vector 317  LocScenario.node[45].veinsmobility  posx  ETV
vector 318  LocScenario.node[45].veinsmobility  posy  ETV
vector 312  LocScenario.node[44].veinsmobility  speed  ETV
vector 319  LocScenario.node[45].veinsmobility  speed  ETV
vector 313  LocScenario.node[44].veinsmobility  acceleration  ETV
vector 314  LocScenario.node[44].veinsmobility  co2emission  ETV
vector 320  LocScenario.node[45].veinsmobility  acceleration  ETV
vector 321  LocScenario.node[45].veinsmobility  co2emission  ETV
vector 324  LocScenario.node[46].veinsmobility  posx  ETV
vector 325  LocScenario.node[46].veinsmobility  posy  ETV
vector 331  LocScenario.node[47].veinsmobility  posx  ETV
vector 332  LocScenario.node[47].veinsmobility  posy  ETV
vector 326  LocScenario.node[46].veinsmobility  speed  ETV
vector 333  LocScenario.node[47].veinsmobility  speed  ETV
vector 327  LocScenario.node[46].veinsmobility  acceleration  ETV
vector 328  LocScenario.node[46].veinsmobility  co2emission  ETV
vector 334  LocScenario.node[47].veinsmobility  acceleration  ETV
vector 335  LocScenario.node[47].veinsmobility  co2emission  ETV
vector 338  LocScenario.node[48].veinsmobility  posx  ETV
vector 339  LocScenario.node[48].veinsmobility  posy  ETV
vector 345  LocScenario.node[49].veinsmobility  posx  ETV
vector 346  LocScenario.node[49].veinsmobility  posy  ETV
vector 340  LocScenario.node[48].veinsmobility  speed  ETV
vector 347  LocScenario.node[49].veinsmobility  speed  ETV
vector 341  LocScenario.node[48].veinsmobility  acceleration  ETV
vector 342  LocScenario.node[48].veinsmobility  co2emission  ETV
vector 348  LocScenario.node[49].veinsmobility  acceleration  ETV
vector 349  LocScenario.node[49].veinsmobility  co2emission  ETV
vector 352  LocScenario.node[50].veinsmobility  posx  ETV
vector 353  LocScenario.node[50].veinsmobility  posy  ETV
vector 359  LocScenario.node[51].veinsmobility  posx  ETV
vector 360  LocScenario.node[51].veinsmobility  posy  ETV
vector 354  LocScenario.node[50].veinsmobility  speed  ETV
vector 361  LocScenario.node[51].veinsmobility  speed  ETV
vector 355  LocScenario.node[50].veinsmobility  acceleration  ETV
vector 356  LocScenario.node[50].veinsmobility  co2emission  ETV
vector 362  LocScenario.node[51].veinsmobility  acceleration  ETV
vector 363  LocScenario.node[51].veinsmobility  co2emission  ETV
vector 366  LocScenario.node[52].veinsmobility  posx  ETV
vector 367  LocScenario.node[52].veinsmobility  posy  ETV
vector 373  LocScenario.node[53].veinsmobility  posx  ETV
vector 374  LocScenario.node[53].veinsmobility  posy  ETV
vector 368  LocScenario.node[52].veinsmobility  speed  ETV
vector 375  LocScenario.node[53].veinsmobility  speed  ETV
vector 369  LocScenario.node[52].veinsmobility  acceleration  ETV
vector 370  LocScenario.node[52].veinsmobility  co2emission  ETV
vector 376  LocScenario.node[53].veinsmobility  acceleration  ETV
vector 377  LocScenario.node[53].veinsmobility  co2emission  ETV
vector 380  LocScenario.node[54].veinsmobility  posx  ETV
vector 381  LocScenario.node[54].veinsmobility  posy  ETV
vector 387  LocScenario.node[55].veinsmobility  posx  ETV
vector 388  LocScenario.node[55].veinsmobility  posy  ETV
vector 382  LocScenario.node[54].veinsmobility  speed  ETV
vector 389  LocScenario.node[55].veinsmobility  speed  ETV
vector 383  LocScenario.node[54].veinsmobility  acceleration  ETV
vector 384  LocScenario.node[54].veinsmobility  co2emission  ETV
vector 390  LocScenario.node[55].veinsmobility  acceleration  ETV
vector 391  LocScenario.node[55].veinsmobility  co2emission  ETV
vector 394  LocScenario.node[56].veinsmobility  posx  ETV
vector 395  LocScenario.node[56].veinsmobility  posy  ETV
vector 401  LocScenario.node[57].veinsmobility  posx  ETV
vector 402  LocScenario.node[57].veinsmobility  posy  ETV
vector 396  LocScenario.node[56].veinsmobility  speed  ETV
vector 403  LocScenario.node[57].veinsmobility  speed  ETV
vector 397  LocScenario.node[56].veinsmobility  acceleration  ETV
vector 398  LocScenario.node[56].veinsmobility  co2emission  ETV
vector 404  LocScenario.node[57].veinsmobility  acceleration  ETV
vector 405  LocScenario.node[57].veinsmobility  co2emission  ETV
vector 408  LocScenario.node[58].veinsmobility  posx  ETV
vector 409  LocScenario.node[58].veinsmobility  posy  ETV
vector 415  LocScenario.node[59].veinsmobility  posx  ETV
vector 416  LocScenario.node[59].veinsmobility  posy  ETV
vector 410  LocScenario.node[58].veinsmobility  speed  ETV
vector 417  LocScenario.node[59].veinsmobility  speed  ETV
vector 411  LocScenario.node[58].veinsmobility  acceleration  ETV
vector 412  LocScenario.node[58].veinsmobility  co2emission  ETV
vector 418  LocScenario.node[59].veinsmobility  acceleration  ETV
vector 419  LocScenario.node[59].veinsmobility  co2emission  ETV
vector 422  LocScenario.node[60].veinsmobility  posx  ETV
vector 423  LocScenario.node[60].veinsmobility  posy  ETV
vector 429  LocScenario.node[61].veinsmobility  posx  ETV
vector 430  LocScenario.node[61].veinsmobility  posy  ETV
vector 424  LocScenario.node[60].veinsmobility  speed  ETV
vector 431  LocScenario.node[61].veinsmobility  speed  ETV
vector 425  LocScenario.node[60].veinsmobility  acceleration  ETV
vector 426  LocScenario.node[60].veinsmobility  co2emission  ETV
vector 432  LocScenario.node[61].veinsmobility  acceleration  ETV
vector 433  LocScenario.node[61].veinsmobility  co2emission  ETV
vector 436  LocScenario.node[62].veinsmobility  posx  ETV
vector 437  LocScenario.node[62].veinsmobility  posy  ETV
vector 443  LocScenario.node[63].veinsmobility  posx  ETV
vector 444  LocScenario.node[63].veinsmobility  posy  ETV
vector 438  LocScenario.node[62].veinsmobility  speed  ETV
vector 445  LocScenario.node[63].veinsmobility  speed  ETV
vector 439  LocScenario.node[62].veinsmobility  acceleration  ETV
vector 440  LocScenario.node[62].veinsmobility  co2emission  ETV
vector 446  LocScenario.node[63].veinsmobility  acceleration  ETV
vector 447  LocScenario.node[63].veinsmobility  co2emission  ETV
vector 450  LocScenario.node[64].veinsmobility  posx  ETV
vector 451  LocScenario.node[64].veinsmobility  posy  ETV
vector 457  LocScenario.node[65].veinsmobility  posx  ETV
vector 458  LocScenario.node[65].veinsmobility  posy  ETV
vector 452  LocScenario.node[64].veinsmobility  speed  ETV
vector 459  LocScenario.node[65].veinsmobility  speed  ETV
vector 453  LocScenario.node[64].veinsmobility  acceleration  ETV
vector 454  LocScenario.node[64].veinsmobility  co2emission  ETV
vector 460  LocScenario.node[65].veinsmobility  acceleration  ETV
vector 461  LocScenario.node[65].veinsmobility  co2emission  ETV
vector 464  LocScenario.node[66].veinsmobility  posx  ETV
vector 465  LocScenario.node[66].veinsmobility  posy  ETV
vector 471  LocScenario.node[67].veinsmobility  posx  ETV
vector 472  LocScenario.node[67].veinsmobility  posy  ETV
vector 466  LocScenario.node[66].veinsmobility  speed  ETV
vector 473  LocScenario.node[67].veinsmobility  speed  ETV
vector 467  LocScenario.node[66].veinsmobility  acceleration  ETV
vector 468  LocScenario.node[66].veinsmobility  co2emission  ETV
vector 474  LocScenario.node[67].veinsmobility  acceleration  ETV
vector 475  LocScenario.node[67].veinsmobility  co2emission  ETV
vector 478  LocScenario.node[68].veinsmobility  posx  ETV
vector 479  LocScenario.node[68].veinsmobility  posy  ETV
vector 485  LocScenario.node[69].veinsmobility  posx  ETV
vector 486  LocScenario.node[69].veinsmobility  posy  ETV
vector 480  LocScenario.node[68].veinsmobility  speed  ETV
vector 487  LocScenario.node[69].veinsmobility  speed  ETV
vector 481  LocScenario.node[68].veinsmobility  acceleration  ETV
vector 482  LocScenario.node[68].veinsmobility  co2emission  ETV
vector 488  LocScenario.node[69].veinsmobility  acceleration  ETV
vector 489  LocScenario.node[69].veinsmobility  co2emission  ETV
vector 492  LocScenario.node[70].veinsmobility  posx  ETV
vector 493  LocScenario.node[70].veinsmobility  posy  ETV
vector 499  LocScenario.node[71].veinsmobility  posx  ETV
vector 500  LocScenario.node[71].veinsmobility  posy  ETV
vector 494  LocScenario.node[70].veinsmobility  speed  ETV
vector 501  LocScenario.node[71].veinsmobility  speed  ETV
vector 495  LocScenario.node[70].veinsmobility  acceleration  ETV
vector 496  LocScenario.node[70].veinsmobility  co2emission  ETV
vector 502  LocScenario.node[71].veinsmobility  acceleration  ETV
vector 503  LocScenario.node[71].veinsmobility  co2emission  ETV
vector 506  LocScenario.node[72].veinsmobility  posx  ETV
vector 507  LocScenario.node[72].veinsmobility  posy  ETV
vector 513  LocScenario.node[73].veinsmobility  posx  ETV
vector 514  LocScenario.node[73].veinsmobility  posy  ETV
vector 508  LocScenario.node[72].veinsmobility  speed  ETV
vector 515  LocScenario.node[73].veinsmobility  speed  ETV
vector 509  LocScenario.node[72].veinsmobility  acceleration  ETV
vector 510  LocScenario.node[72].veinsmobility  co2emission  ETV
vector 516  LocScenario.node[73].veinsmobility  acceleration  ETV
vector 517  LocScenario.node[73].veinsmobility  co2emission  ETV
vector 520  LocScenario.node[74].veinsmobility  posx  ETV
vector 521  LocScenario.node[74].veinsmobility  posy  ETV
vector 527  LocScenario.node[75].veinsmobility  posx  ETV
vector 528  LocScenario.node[75].veinsmobility  posy  ETV
vector 522  LocScenario.node[74].veinsmobility  speed  ETV
vector 529  LocScenario.node[75].veinsmobility  speed  ETV
vector 523  LocScenario.node[74].veinsmobility  acceleration  ETV
vector 524  LocScenario.node[74].veinsmobility  co2emission  ETV
vector 530  LocScenario.node[75].veinsmobility  acceleration  ETV
vector 531  LocScenario.node[75].veinsmobility  co2emission  ETV
vector 534  LocScenario.node[76].veinsmobility  posx  ETV
vector 535  LocScenario.node[76].veinsmobility  posy  ETV
vector 541  LocScenario.node[77].veinsmobility  posx  ETV
vector 542  LocScenario.node[77].veinsmobility  posy  ETV
vector 536  LocScenario.node[76].veinsmobility  speed  ETV
vector 543  LocScenario.node[77].veinsmobility  speed  ETV
vector 537  LocScenario.node[76].veinsmobility  acceleration  ETV
vector 538  LocScenario.node[76].veinsmobility  co2emission  ETV
vector 544  LocScenario.node[77].veinsmobility  acceleration  ETV
vector 545  LocScenario.node[77].veinsmobility  co2emission  ETV
vector 548  LocScenario.node[78].veinsmobility  posx  ETV
vector 549  LocScenario.node[78].veinsmobility  posy  ETV
vector 555  LocScenario.node[79].veinsmobility  posx  ETV
vector 556  LocScenario.node[79].veinsmobility  posy  ETV
vector 550  LocScenario.node[78].veinsmobility  speed  ETV
vector 557  LocScenario.node[79].veinsmobility  speed  ETV
vector 551  LocScenario.node[78].veinsmobility  acceleration  ETV
vector 552  LocScenario.node[78].veinsmobility  co2emission  ETV
vector 558  LocScenario.node[79].veinsmobility  acceleration  ETV
vector 559  LocScenario.node[79].veinsmobility  co2emission  ETV
vector 562  LocScenario.node[80].veinsmobility  posx  ETV
vector 563  LocScenario.node[80].veinsmobility  posy  ETV
vector 569  LocScenario.node[81].veinsmobility  posx  ETV
vector 570  LocScenario.node[81].veinsmobility  posy  ETV
vector 564  LocScenario.node[80].veinsmobility  speed  ETV
vector 571  LocScenario.node[81].veinsmobility  speed  ETV
vector 565  LocScenario.node[80].veinsmobility  acceleration  ETV
vector 566  LocScenario.node[80].veinsmobility  co2emission  ETV
vector 572  LocScenario.node[81].veinsmobility  acceleration  ETV
vector 573  LocScenario.node[81].veinsmobility  co2emission  ETV
vector 576  LocScenario.node[82].veinsmobility  posx  ETV
vector 577  LocScenario.node[82].veinsmobility  posy  ETV
vector 583  LocScenario.node[83].veinsmobility  posx  ETV
vector 584  LocScenario.node[83].veinsmobility  posy  ETV
vector 578  LocScenario.node[82].veinsmobility  speed  ETV
vector 585  LocScenario.node[83].veinsmobility  speed  ETV
vector 579  LocScenario.node[82].veinsmobility  acceleration  ETV
vector 580  LocScenario.node[82].veinsmobility  co2emission  ETV
vector 586  LocScenario.node[83].veinsmobility  acceleration  ETV
vector 587  LocScenario.node[83].veinsmobility  co2emission  ETV
vector 590  LocScenario.node[84].veinsmobility  posx  ETV
vector 591  LocScenario.node[84].veinsmobility  posy  ETV
vector 597  LocScenario.node[85].veinsmobility  posx  ETV
vector 598  LocScenario.node[85].veinsmobility  posy  ETV
vector 592  LocScenario.node[84].veinsmobility  speed  ETV
vector 599  LocScenario.node[85].veinsmobility  speed  ETV
vector 593  LocScenario.node[84].veinsmobility  acceleration  ETV
vector 594  LocScenario.node[84].veinsmobility  co2emission  ETV
vector 600  LocScenario.node[85].veinsmobility  acceleration  ETV
vector 601  LocScenario.node[85].veinsmobility  co2emission  ETV
vector 604  LocScenario.node[86].veinsmobility  posx  ETV
vector 605  LocScenario.node[86].veinsmobility  posy  ETV
vector 611  LocScenario.node[87].veinsmobility  posx  ETV
vector 612  LocScenario.node[87].veinsmobility  posy  ETV
vector 606  LocScenario.node[86].veinsmobility  speed  ETV
vector 613  LocScenario.node[87].veinsmobility  speed  ETV
vector 607  LocScenario.node[86].veinsmobility  acceleration  ETV
vector 608  LocScenario.node[86].veinsmobility  co2emission  ETV
vector 614  LocScenario.node[87].veinsmobility  acceleration  ETV
vector 615  LocScenario.node[87].veinsmobility  co2emission  ETV
vector 618  LocScenario.node[88].veinsmobility  posx  ETV
vector 619  LocScenario.node[88].veinsmobility  posy  ETV
vector 625  LocScenario.node[89].veinsmobility  posx  ETV
vector 626  LocScenario.node[89].veinsmobility  posy  ETV
vector 620  LocScenario.node[88].veinsmobility  speed  ETV
vector 627  LocScenario.node[89].veinsmobility  speed  ETV
vector 621  LocScenario.node[88].veinsmobility  acceleration  ETV
vector 622  LocScenario.node[88].veinsmobility  co2emission  ETV
vector 628  LocScenario.node[89].veinsmobility  acceleration  ETV
vector 629  LocScenario.node[89].veinsmobility  co2emission  ETV
vector 632  LocScenario.node[90].veinsmobility  posx  ETV
vector 633  LocScenario.node[90].veinsmobility  posy  ETV
vector 639  LocScenario.node[91].veinsmobility  posx  ETV
vector 640  LocScenario.node[91].veinsmobility  posy  ETV
vector 634  LocScenario.node[90].veinsmobility  speed  ETV
vector 641  LocScenario.node[91].veinsmobility  speed  ETV
vector 635  LocScenario.node[90].veinsmobility  acceleration  ETV
vector 636  LocScenario.node[90].veinsmobility  co2emission  ETV
vector 642  LocScenario.node[91].veinsmobility  acceleration  ETV
vector 643  LocScenario.node[91].veinsmobility  co2emission  ETV
vector 646  LocScenario.node[92].veinsmobility  posx  ETV
vector 647  LocScenario.node[92].veinsmobility  posy  ETV
vector 653  LocScenario.node[93].veinsmobility  posx  ETV
vector 654  LocScenario.node[93].veinsmobility  posy  ETV
vector 648  LocScenario.node[92].veinsmobility  speed  ETV
vector 655  LocScenario.node[93].veinsmobility  speed  ETV
vector 649  LocScenario.node[92].veinsmobility  acceleration  ETV
vector 650  LocScenario.node[92].veinsmobility  co2emission  ETV
vector 656  LocScenario.node[93].veinsmobility  acceleration  ETV
vector 657  LocScenario.node[93].veinsmobility  co2emission  ETV
vector 660  LocScenario.node[94].veinsmobility  posx  ETV
vector 661  LocScenario.node[94].veinsmobility  posy  ETV
vector 667  LocScenario.node[95].veinsmobility  posx  ETV
vector 668  LocScenario.node[95].veinsmobility  posy  ETV
vector 662  LocScenario.node[94].veinsmobility  speed  ETV
vector 669  LocScenario.node[95].veinsmobility  speed  ETV
vector 663  LocScenario.node[94].veinsmobility  acceleration  ETV
vector 664  LocScenario.node[94].veinsmobility  co2emission  ETV
vector 670  LocScenario.node[95].veinsmobility  acceleration  ETV
vector 671  LocScenario.node[95].veinsmobility  co2emission  ETV
vector 674  LocScenario.node[96].veinsmobility  posx  ETV
vector 675  LocScenario.node[96].veinsmobility  posy  ETV
vector 681  LocScenario.node[97].veinsmobility  posx  ETV
vector 682  LocScenario.node[97].veinsmobility  posy  ETV
vector 676  LocScenario.node[96].veinsmobility  speed  ETV
vector 683  LocScenario.node[97].veinsmobility  speed  ETV
vector 677  LocScenario.node[96].veinsmobility  acceleration  ETV
vector 678  LocScenario.node[96].veinsmobility  co2emission  ETV
vector 684  LocScenario.node[97].veinsmobility  acceleration  ETV
vector 685  LocScenario.node[97].veinsmobility  co2emission  ETV
vector 688  LocScenario.node[98].veinsmobility  posx  ETV
vector 689  LocScenario.node[98].veinsmobility  posy  ETV
vector 695  LocScenario.node[99].veinsmobility  posx  ETV
vector 696  LocScenario.node[99].veinsmobility  posy  ETV
vector 690  LocScenario.node[98].veinsmobility  speed  ETV
vector 697  LocScenario.node[99].veinsmobility  speed  ETV
vector 691  LocScenario.node[98].veinsmobility  acceleration  ETV
vector 692  LocScenario.node[98].veinsmobility  co2emission  ETV
vector 698  LocScenario.node[99].veinsmobility  acceleration  ETV
vector 699  LocScenario.node[99].veinsmobility  co2emission  ETV
vector 702  LocScenario.node[100].veinsmobility  posx  ETV
vector 703  LocScenario.node[100].veinsmobility  posy  ETV
vector 709  LocScenario.node[101].veinsmobility  posx  ETV
vector 710  LocScenario.node[101].veinsmobility  posy  ETV
vector 704  LocScenario.node[100].veinsmobility  speed  ETV
vector 711  LocScenario.node[101].veinsmobility  speed  ETV
vector 705  LocScenario.node[100].veinsmobility  acceleration  ETV
vector 706  LocScenario.node[100].veinsmobility  co2emission  ETV
vector 712  LocScenario.node[101].veinsmobility  acceleration  ETV
vector 713  LocScenario.node[101].veinsmobility  co2emission  ETV
vector 716  LocScenario.node[102].veinsmobility  posx  ETV
vector 717  LocScenario.node[102].veinsmobility  posy  ETV
vector 723  LocScenario.node[103].veinsmobility  posx  ETV
vector 724  LocScenario.node[103].veinsmobility  posy  ETV
vector 718  LocScenario.node[102].veinsmobility  speed  ETV
vector 725  LocScenario.node[103].veinsmobility  speed  ETV
vector 719  LocScenario.node[102].veinsmobility  acceleration  ETV
vector 720  LocScenario.node[102].veinsmobility  co2emission  ETV
vector 726  LocScenario.node[103].veinsmobility  acceleration  ETV
vector 727  LocScenario.node[103].veinsmobility  co2emission  ETV
vector 730  LocScenario.node[104].veinsmobility  posx  ETV
vector 731  LocScenario.node[104].veinsmobility  posy  ETV
vector 737  LocScenario.node[105].veinsmobility  posx  ETV
vector 738  LocScenario.node[105].veinsmobility  posy  ETV
vector 732  LocScenario.node[104].veinsmobility  speed  ETV
vector 739  LocScenario.node[105].veinsmobility  speed  ETV
vector 733  LocScenario.node[104].veinsmobility  acceleration  ETV
vector 734  LocScenario.node[104].veinsmobility  co2emission  ETV
vector 740  LocScenario.node[105].veinsmobility  acceleration  ETV
vector 741  LocScenario.node[105].veinsmobility  co2emission  ETV
vector 744  LocScenario.node[106].veinsmobility  posx  ETV
vector 745  LocScenario.node[106].veinsmobility  posy  ETV
vector 751  LocScenario.node[107].veinsmobility  posx  ETV
vector 752  LocScenario.node[107].veinsmobility  posy  ETV
vector 746  LocScenario.node[106].veinsmobility  speed  ETV
vector 753  LocScenario.node[107].veinsmobility  speed  ETV
vector 747  LocScenario.node[106].veinsmobility  acceleration  ETV
vector 748  LocScenario.node[106].veinsmobility  co2emission  ETV
vector 754  LocScenario.node[107].veinsmobility  acceleration  ETV
vector 755  LocScenario.node[107].veinsmobility  co2emission  ETV
vector 758  LocScenario.node[108].veinsmobility  posx  ETV
vector 759  LocScenario.node[108].veinsmobility  posy  ETV
vector 765  LocScenario.node[109].veinsmobility  posx  ETV
vector 766  LocScenario.node[109].veinsmobility  posy  ETV
vector 760  LocScenario.node[108].veinsmobility  speed  ETV
vector 767  LocScenario.node[109].veinsmobility  speed  ETV
vector 761  LocScenario.node[108].veinsmobility  acceleration  ETV
vector 762  LocScenario.node[108].veinsmobility  co2emission  ETV
vector 768  LocScenario.node[109].veinsmobility  acceleration  ETV
vector 769  LocScenario.node[109].veinsmobility  co2emission  ETV
vector 772  LocScenario.node[110].veinsmobility  posx  ETV
vector 773  LocScenario.node[110].veinsmobility  posy  ETV
vector 779  LocScenario.node[111].veinsmobility  posx  ETV
vector 780  LocScenario.node[111].veinsmobility  posy  ETV
vector 774  LocScenario.node[110].veinsmobility  speed  ETV
vector 781  LocScenario.node[111].veinsmobility  speed  ETV
vector 775  LocScenario.node[110].veinsmobility  acceleration  ETV
vector 776  LocScenario.node[110].veinsmobility  co2emission  ETV
vector 782  LocScenario.node[111].veinsmobility  acceleration  ETV
vector 783  LocScenario.node[111].veinsmobility  co2emission  ETV
vector 786  LocScenario.node[112].veinsmobility  posx  ETV
vector 787  LocScenario.node[112].veinsmobility  posy  ETV
vector 793  LocScenario.node[113].veinsmobility  posx  ETV
vector 794  LocScenario.node[113].veinsmobility  posy  ETV
vector 788  LocScenario.node[112].veinsmobility  speed  ETV
vector 795  LocScenario.node[113].veinsmobility  speed  ETV
vector 789  LocScenario.node[112].veinsmobility  acceleration  ETV
vector 790  LocScenario.node[112].veinsmobility  co2emission  ETV
vector 796  LocScenario.node[113].veinsmobility  acceleration  ETV
vector 797  LocScenario.node[113].veinsmobility  co2emission  ETV
13	37180 32576 40 13190640 0.3 112.6 1124 0.57935743390844 13.61478043798 3592.0507407497 17178.954535977
12	69756 36743 40 13190640 0.3 112.6 1124 -1.2876590665663 2.5317536585033 44.890726672416 398.54237054675
11	106499 35021 21 13190640 0.2 112.6 1125 15.521054257208 20.119973095939 21342.848740706 408958.21200886
10	141520 35043 2 13190640 0.1 112.6 1126 177.20127428924 2145.0639279123 1228356.3909847 1751655563.1688
9	176563 33930 2 13190640 0.1 112.6 1126 107.25283265932 386.24517270027 358410.66323084 122691675.3596
vector 800  LocScenario.node[114].veinsmobility  posx  ETV
vector 801  LocScenario.node[114].veinsmobility  posy  ETV
vector 807  LocScenario.node[115].veinsmobility  posx  ETV
vector 808  LocScenario.node[115].veinsmobility  posy  ETV
vector 802  LocScenario.node[114].veinsmobility  speed  ETV
vector 809  LocScenario.node[115].veinsmobility  speed  ETV
vector 803  LocScenario.node[114].veinsmobility  acceleration  ETV
vector 804  LocScenario.node[114].veinsmobility  co2emission  ETV
vector 810  LocScenario.node[115].veinsmobility  acceleration  ETV
vector 811  LocScenario.node[115].veinsmobility  co2emission  ETV
27	211115 32609 504 13828253 2.3 114.6 1124 0.55061658393953 13.271396441626 3609.802695332 17485.568176159
26	243724 36909 504 13828253 2.3 114.6 1124 -1.2792798650218 2.5701438870048 44.993308087182 409.64531439612
25	280633 35139 443 13828253 2.2 114.6 1125 15.520019001605 20.119905529385 21345.814559341 409073.15820175
24	315772 35186 382 13828253 2.1 114.6 1126 177.20127428924 2145.3571227043 1228572.2713686 1752248530.0022
23	350958 35161 382 13828253 2.1 114.6 1126 107.22168071267 386.24422893121 358367.63546989 122669925.08533
vector 814  LocScenario.node[116].veinsmobility  posx  ETV
vector 815  LocScenario.node[116].veinsmobility  posy  ETV
vector 821  LocScenario.node[117].veinsmobility  posx  ETV
vector 822  LocScenario.node[117].veinsmobility  posy  ETV
vector 816  LocScenario.node[116].veinsmobility  speed  ETV
vector 823  LocScenario.node[117].veinsmobility  speed  ETV
vector 817  LocScenario.node[116].veinsmobility  acceleration  ETV
vector 818  LocScenario.node[116].veinsmobility  co2emission  ETV
vector 824  LocScenario.node[117].veinsmobility  acceleration  ETV
vector 825  LocScenario.node[117].veinsmobility  co2emission  ETV
41	386741 32766 1856 14471666 4.3 116.6 1124 0.55478237153526 14.359814116511 3614.5107836524 17786.597266413
40	419507 37017 1856 14471666 4.3 116.6 1124 -1.2458853641991 2.4791277347133 45.098853766057 421.62076353375
39	456524 35287 1729 14471666 4.2 116.6 1125 15.520333303681 20.119882597332 21340.602485804 408882.40314222
38	491811 35303 1602 14471666 4.1 116.6 1126 179.4410342064 2144.8365280214 1228553.2561167 1751445293.1186
37	527114 35288 1602 14471666 4.1 116.6 1126 107.27699389772 382.94426598672 356823.08212015 121590940.15314
vector 828  LocScenario.node[118].veinsmobility  posx  ETV
vector 829  LocScenario.node[118].veinsmobility  posy  ETV
vector 835  LocScenario.node[119].veinsmobility  posx  ETV
vector 836  LocScenario.node[119].veinsmobility  posy  ETV
vector 830  LocScenario.node[118].veinsmobility  speed  ETV
vector 837  LocScenario.node[119].veinsmobility  speed  ETV
vector 831  LocScenario.node[118].veinsmobility  acceleration  ETV
vector 832  LocScenario.node[118].veinsmobility  co2emission  ETV
vector 838  LocScenario.node[119].veinsmobility  acceleration  ETV
vector 839  LocScenario.node[119].veinsmobility  co2emission  ETV
55	563024 32917 4576 15121372 6.3 118.6 1124 0.55358306941648 14.645616408537 3589.4374239696 17385.63355604
54	595941 37117 4576 15121372 6.3 118.6 1124 -1.2313964596717 2.5473629345652 44.632199567952 401.3558408048
53	633058 35406 4359 15121372 6.2 118.6 1125 15.520909829286 20.119828387918 21341.84748452 408930.60771196
52	668464 35436 4142 15121372 6.1 118.6 1126 179.4410342064 2144.9557395676 1228518.4143775 1751374177.4502
51	703900 35428 4142 15121372 6.1 118.6 1126 107.26432767094 382.94443834822 356825.64550313 121593575.04018
6	739328 33738 40 15285253 0.3 119.1 1189 0.57339435374697 8.9637734286872 3775.0818542376 17005.711342045
5	773066 37911 40 15285253 0.3 119.1 1189 -1.2735589388525 1.2646551020443 -0.1103578279028 325.89705175183
4	810977 36019 21 15285253 0.2 119.1 1190 19.99002579368 20.119906795102 23863.870073873 478559.99506008
3	846996 36024 2 15285253 0.1 119.1 1191 25.614341721724 2142.7175664701 1214862.6645465 1740400697.5901
2	883020 36043 2 15285253 0.1 119.1 1191 28.354932690135 395.96978071906 377460.4700764 132251080.70403
vector 842  LocScenario.node[120].veinsmobility  posx  ETV
vector 843  LocScenario.node[120].veinsmobility  posy  ETV
vector 849  LocScenario.node[121].veinsmobility  posx  ETV
vector 850  LocScenario.node[121].veinsmobility  posy  ETV
vector 844  LocScenario.node[120].veinsmobility  speed  ETV
vector 851  LocScenario.node[121].veinsmobility  speed  ETV
vector 845  LocScenario.node[120].veinsmobility  acceleration  ETV
vector 846  LocScenario.node[120].veinsmobility  co2emission  ETV
vector 852  LocScenario.node[121].veinsmobility  acceleration  ETV
vector 853  LocScenario.node[121].veinsmobility  co2emission  ETV
69	919685 33218 9144 15773297 8.3 120.6 1124 0.56123951713284 13.828318823308 3582.3099619561 17460.676062278
68	952903 37261 9144 15773297 8.3 120.6 1124 -1.2433584167622 2.5867649318651 44.824093801505 403.63294327659
67	990164 35532 8813 15773297 8.2 120.6 1125 15.520234135869 20.119948902135 21344.943005518 409038.48183807
66	1025696 35555 8482 15773297 8.1 120.6 1126 179.4410342064 2145.270787818 1228878.1469927 1752293546.4122
65	1061251 35526 8482 15773297 8.1 120.6 1126 107.23085379434 382.94477021863 356771.89871888 121566548.06333
20	1096777 34963 504 15937314 2.3 121.1 1189 0.55193986757102 8.6914666700891 3821.9888137802 17504.189241263
19	1131740 39203 504 15937314 2.3 121.1 1189 -1.2389681295724 1.2089510587044 0.60635088307318 348.38512725672
18	1170943 37347 443 15937314 2.2 121.1 1190 19.990127417375 20.119992804453 23863.747795701 478554.9708435
17	1208290 37361 382 15937314 2.1 121.1 1191 25.628258412276 2142.7175664701 1214858.8632593 1740390422.1901
16	1245651 37379 382 15937314 2.1 121.1 1191 28.371939232053 395.96978004968 377460.12169184 132249940.64578
vector 856  LocScenario.node[122].veinsmobility  posx  ETV
vector 857  LocScenario.node[122].veinsmobility  posy  ETV
vector 863  LocScenario.node[123].veinsmobility  posx  ETV
vector 864  LocScenario.node[123].veinsmobility  posy  ETV
vector 858  LocScenario.node[122].veinsmobility  speed  ETV
vector 865  LocScenario.node[123].veinsmobility  speed  ETV
vector 859  LocScenario.node[122].veinsmobility  acceleration  ETV
vector 860  LocScenario.node[122].veinsmobility  co2emission  ETV
vector 866  LocScenario.node[123].veinsmobility  acceleration  ETV
vector 867  LocScenario.node[123].veinsmobility  co2emission  ETV
83	1283652 33285 16040 16424800 10.3 122.6 1124 0.55646050199172 15.163857778758 3575.188164891 17177.078654993
82	1316937 37355 16040 16424800 10.3 122.6 1124 -1.2511707455851 2.5976346581709 44.465135638183 389.39704371663
81	1354292 35618 15571 16424800 10.2 122.6 1125 15.521030399923 20.119776994304 21340.340400695 408865.05513915
80	1389910 35655 15102 16424800 10.1 122.6 1126 179.4410342064 2144.8098155413 1228576.884992 1751457755.0676
79	1425565 35655 15102 16424800 10.1 122.6 1126 107.27983209874 382.94392768297 356826.91105974 121592711.90422
34	1461220 35034 1856 16588825 4.3 123.1 1189 0.5503333319012 8.8834041648778 3799.4966876541 17395.212885798
33	1496254 39360 1856 16588825 4.3 123.1 1189 -1.2612372452626 1.2479671537411 -0.55313672251071 344.27917878684
32	1535614 37473 1729 16588825 4.2 123.1 1190 19.990213865612 20.11956574209 23865.756813932 478635.58834525
31	1573087 37501 1602 16588825 4.1 123.1 1191 25.496539616198 2142.3146825603 1214280.2222863 1738613784.8175
30	1610588 37517 1602 16588825 4.1 123.1 1191 28.210975587823 395.96673456856 375858.58224432 131318727.95516
vector 870  LocScenario.node[124].veinsmobility  posx  ETV
vector 871  LocScenario.node[124].veinsmobility  posy  ETV
vector 877  LocScenario.node[125].veinsmobility  posx  ETV
vector 878  LocScenario.node[125].veinsmobility  posy  ETV
vector 872  LocScenario.node[124].veinsmobility  speed  ETV
vector 879  LocScenario.node[125].veinsmobility  speed  ETV
vector 873  LocScenario.node[124].veinsmobility  acceleration  ETV
vector 874  LocScenario.node[124].veinsmobility  co2emission  ETV
vector 880  LocScenario.node[125].veinsmobility  acceleration  ETV
vector 881  LocScenario.node[125].veinsmobility  co2emission  ETV
97	1648727 33219 25744 17075933 12.3 124.6 1124 0.55425529481871 13.945477299032 3614.8409315177 17663.714493593
96	1681946 37434 25744 17075933 12.3 124.6 1124 -1.2400276209926 2.5196872072527 44.620449713757 416.32483940984
95	1719380 35709 25113 17075933 12.2 124.6 1125 15.520006634651 20.119814914761 21338.984126662 408820.85471274
94	1755089 35710 24482 17075933 12.1 124.6 1126 179.4410342064 2144.6805712394 1228415.6571505 1751061209.9622
93	1790799 35747 24482 17075933 12.1 124.6 1126 107.29356430581 382.94363985435 356846.71131745 121602570.7079
48	1826546 35186 4576 17239546 6.3 125.1 1189 0.55468669727742 9.0123962759191 3776.6637434151 17078.501787291
47	1861732 39504 4576 17239546 6.3 125.1 1189 -1.2420797887724 1.2745709843002 -0.10589445957446 328.27735083863
46	1901236 37604 4359 17239546 6.2 125.1 1190 19.990120535041 20.119960150202 23864.150252434 478571.14929551
45	1938840 37601 4142 17239546 6.1 125.1 1191 25.597484614455 2142.3146825603 1214365.3060042 1738782921.8871
44	1976441 37614 4142 17239546 6.1 125.1 1191 28.334332885869 395.96684828195 375867.99020452 131320453.20954
vector 884  LocScenario.node[126].veinsmobility  posx  ETV
vector 885  LocScenario.node[126].veinsmobility  posy  ETV
vector 891  LocScenario.node[127].veinsmobility  posx  ETV
vector 892  LocScenario.node[127].veinsmobility  posy  ETV
vector 886  LocScenario.node[126].veinsmobility  speed  ETV
vector 893  LocScenario.node[127].veinsmobility  speed  ETV
vector 887  LocScenario.node[126].veinsmobility  acceleration  ETV
vector 888  LocScenario.node[126].veinsmobility  co2emission  ETV
vector 894  LocScenario.node[127].veinsmobility  acceleration  ETV
vector 895  LocScenario.node[127].veinsmobility  co2emission  ETV
111	2014677 34583 38736 17727086 14.3 126.6 1124 0.56366508054705 15.098602575911 3570.0110356292 17152.678865442
110	2049260 38666 38736 17727086 14.3 126.6 1124 -1.2329651139676 2.5615539863939 44.31113661842 393.19884851346
109	2087926 36905 37919 17727086 14.2 126.6 1125 15.52000895103 20.119695144894 21341.276573913 408911.06156576
108	2124831 36931 37102 17727086 14.1 126.6 1126 179.4410342064 2144.9091845559 1228555.0792398 1751482390.4031
107	2161762 36963 37102 17727086 14.1 126.6 1126 107.26927414094 382.94272666771 356815.48179605 121587417.59212
62	2198725 35322 9144 17891137 8.3 127.1 1189 0.54865613308446 8.8959028184861 3799.8963344305 17362.651719747
61	2234047 39602 9144 17891137 8.3 127.1 1189 -1.2410579156131 1.2504718463402 0.21320584549102 342.6125907926
60	2273649 37724 8813 17891137 8.2 127.1 1190 19.990059784716 20.119889378147 23866.38297243 478660.75104485
59	2311373 37747 8482 17891137 8.1 127.1 1191 25.459057551579 2142.3146825603 1214246.9885871 1738557042.1947
58	2349120 37727 8482 17891137 8.1 127.1 1191 28.165171572799 395.9658136927 375852.44005585 131316509.79469
vector 898  LocScenario.node[128].veinsmobility  posx  ETV
vector 899  LocScenario.node[128].veinsmobility  posy  ETV
vector 905  LocScenario.node[129].veinsmobility  posx  ETV
vector 906  LocScenario.node[129].veinsmobility  posy  ETV
vector 900  LocScenario.node[128].veinsmobility  speed  ETV
vector 907  LocScenario.node[129].veinsmobility  speed  ETV
vector 901  LocScenario.node[128].veinsmobility  acceleration  ETV
vector 902  LocScenario.node[128].veinsmobility  co2emission  ETV
vector 908  LocScenario.node[129].veinsmobility  acceleration  ETV
vector 909  LocScenario.node[129].veinsmobility  co2emission  ETV
125	2387469 34641 55496 18379177 16.3 128.6 1124 0.56979184327798 14.186873157825 3587.5275804881 17299.518460251
124	2422110 38746 55496 18379177 16.3 128.6 1124 -1.2310261212057 2.5623066657921 44.443240846344 402.67207853415
123	2460856 37004 54469 18379177 16.2 128.6 1125 15.520013352782 20.119782465363 21339.693520332 408840.71065387
122	2497860 37020 53442 18379177 16.1 128.6 1126 179.4410342064 2144.7472754852 1228480.0529226 1751203878.3009
121	2534880 37024 53442 18379177 16.1 128.6 1126 107.2864769797 382.94562060391 356841.65863529 121600443.54642
76	2571904 35297 16040 18543153 10.3 129.1 1189 0.55094955528106 8.8705895060179 3825.0905295479 17698.071506677
75	2607201 39664 16040 18543153 10.3 129.1 1189 -1.2744728903053 1.2455751542933 0.86427668740505 356.9021256624
74	2646865 37806 15571 18543153 10.2 129.1 1190 19.990093861592 20.119992125905 23866.75584831 478675.73032514
73	2684671 37839 15102 18543153 10.1 129.1 1191 25.437279765754 2142.7175664701 1214599.2543847 1739937433.6628
72	2722510 37841 15102 18543153 10.1 129.1 1191 28.138558576978 395.96454535612 377421.2662131 132236807.02277
vector 912  LocScenario.node[130].veinsmobility  posx  ETV
vector 913  LocScenario.node[130].veinsmobility  posy  ETV
vector 919  LocScenario.node[131].veinsmobility  posx  ETV
vector 920  LocScenario.node[131].veinsmobility  posy  ETV
vector 914  LocScenario.node[130].veinsmobility  speed  ETV
vector 921  LocScenario.node[131].veinsmobility  speed  ETV
vector 915  LocScenario.node[130].veinsmobility  acceleration  ETV
vector 916  LocScenario.node[130].veinsmobility  co2emission  ETV
vector 922  LocScenario.node[131].veinsmobility  acceleration  ETV
vector 923  LocScenario.node[131].veinsmobility  co2emission  ETV
139	2760973 34634 76504 19031068 18.3 130.6 1124 0.55380891201718 14.302219157769 3608.0678755492 17480.934258627
138	2795607 38794 76504 19031068 18.3 130.6 1124 -1.2414029010106 2.5964563727845 44.577449957374 409.24529597261
137	2834401 37056 75243 19031068 18.2 130.6 1125 15.520005640106 20.119980451211 21338.705591753 408807.0050871
136	2871457 37116 73982 19031068 18.1 130.6 1126 177.20127428924 2144.6494096403 1228055.3319319 1750841446.2017
135	2908573 37086 73982 19031068 18.1 130.6 1126 107.29687522571 386.24374700649 358464.20530422 122717923.46937
90	2945659 35611 25744 19194822 12.3 131.1 1189 0.55353685457862 8.9312825327916 3775.4335633899 17183.386974555
89	2981270 39769 25744 19194822 12.3 131.1 1189 -1.2930432514288 1.2580071943579 -0.78595987355801 334.887476898
88	3021039 37910 25113 19194822 12.2 131.1 1190 19.990004156339 20.119845001712 23863.641830251 478550.7276725
87	3058949 37908 24482 19194822 12.1 131.1 1191 25.628061947688 2141.902346661 1214416.1925112 1738849719.1177
86	3096857 37923 24482 19194822 12.1 131.1 1191 28.371699147441 395.96916662181 375868.46265925 131320579.2651
vector 926  LocScenario.node[132].veinsmobility  posx  ETV
vector 927  LocScenario.node[132].veinsmobility  posy  ETV
vector 933  LocScenario.node[133].veinsmobility  posx  ETV
vector 934  LocScenario.node[133].veinsmobility  posy  ETV
vector 928  LocScenario.node[132].veinsmobility  speed  ETV
vector 935  LocScenario.node[133].veinsmobility  speed  ETV
vector 929  LocScenario.node[132].veinsmobility  acceleration  ETV
vector 930  LocScenario.node[132].veinsmobility  co2emission  ETV
vector 936  LocScenario.node[133].veinsmobility  acceleration  ETV
vector 937  LocScenario.node[133].veinsmobility  co2emission  ETV
153	3135402 34675 102240 19682726 20.3 132.6 1124 0.56815652217717 15.223061487862 3591.6303039939 17426.531278825
152	3170077 38862 102240 19682726 20.3 132.6 1124 -1.2901165780379 2.597810153151 45.106457652594 404.91929900337
151	3208939 37157 100721 19682726 20.2 132.6 1125 15.520510734753 20.119997396106 21345.190826011 409057.45065447
150	3246096 37176 99202 19682726 20.1 132.6 1126 179.4410342064 2145.2973466442 1228827.8164422 1752202770.3414
149	3283272 37184 99202 19682726 20.1 132.6 1126 107.22803191905 382.94382595977 356768.66131837 121564451.92481
104	3320456 36747 38736 19846623 14.3 133.1 1189 0.56549231231385 9.0712121087655 3797.4989418389 17306.335195697
103	3357203 41054 38736 19846623 14.3 133.1 1189 -1.2692772459238 1.2865266868146 -0.4120182873914 340.34243117451
102	3398257 39151 37919 19846623 14.2 133.1 1190 19.990024885156 20.11997836269 23868.94906338 478763.65822337
101	3437408 39191 37102 19846623 14.1 133.1 1191 25.295663790492 2142.7175664701 1214548.5179867 1739943141.4393
100	3476599 39213 37102 19846623 14.1 133.1 1191 27.965500333674 395.96093791437 377379.147422 132218592.72596
vector 940  LocScenario.node[134].veinsmobility  posx  ETV
vector 941  LocScenario.node[134].veinsmobility  posy  ETV
vector 947  LocScenario.node[135].veinsmobility  posx  ETV
vector 948  LocScenario.node[135].veinsmobility  posy  ETV
vector 942  LocScenario.node[134].veinsmobility  speed  ETV
vector 949  LocScenario.node[135].veinsmobility  speed  ETV
vector 943  LocScenario.node[134].veinsmobility  acceleration  ETV
vector 944  LocScenario.node[134].veinsmobility  co2emission  ETV
vector 950  LocScenario.node[135].veinsmobility  acceleration  ETV
vector 951  LocScenario.node[135].veinsmobility  co2emission  ETV
167	3516434 34826 132927 20332799 22.3 134.6 1124 0.55818137317018 13.877386356265 3576.4605008819 17150.855781924
166	3551260 38974 132927 20332799 22.3 134.6 1124 -1.1952608266845 2.4098042670638 44.747036256548 390.87113035532
165	3590234 37196 131156 20332799 22.2 134.6 1125 15.520783995532 20.119996852856 21343.840250758 409007.47781324
164	3627430 37240 129355 20332799 22.1 134.6 1126 177.20127428924 2145.1618741778 1228372.8651958 1751744829.1979
163	3664670 37240 129355 20332799 22.1 134.6 1126 107.24242586861 386.24315438415 358399.53711928 122686171.21992
118	3701910 36975 55496 20496133 16.3 135.1 1189 0.55060056869025 8.9492142158853 3783.6877034623 17138.66863076
117	3738885 41169 55496 20496133 16.3 135.1 1189 -1.2346627359046 1.2614451457514 0.45817952195648 331.63859534425
116	3780054 39250 54469 20496133 16.2 135.1 1190 19.990002866136 20.119800037532 23869.056460107 478767.99457987
115	3819304 39264 53442 20496133 16.1 135.1 1191 25.289042605018 2142.3146825603 1214075.8104436 1738264315.556
114	3858568 39272 53442 20496133 16.1 135.1 1191 27.957409080376 395.96222274634 375820.32139866 131305943.46467
vector 954  LocScenario.node[136].veinsmobility  posx  ETV
vector 955  LocScenario.node[136].veinsmobility  posy  ETV
vector 961  LocScenario.node[137].veinsmobility  posx  ETV
vector 962  LocScenario.node[137].veinsmobility  posy  ETV
vector 956  LocScenario.node[136].veinsmobility  speed  ETV
vector 963  LocScenario.node[137].veinsmobility  speed  ETV
vector 957  LocScenario.node[136].veinsmobility  acceleration  ETV
vector 958  LocScenario.node[136].veinsmobility  co2emission  ETV
vector 964  LocScenario.node[137].veinsmobility  acceleration  ETV
vector 965  LocScenario.node[137].veinsmobility  co2emission  ETV
181	3898462 34703 169155 20982113 24.3 136.6 1124 0.55631035509643 14.424865183974 3605.2899641524 17540.108285881
180	3933165 39023 169155 20982113 24.3 136.6 1124 -1.2056712569203 2.5663327625487 44.174142226647 411.62916626992
179	3972188 37253 167081 20982113 24.2 136.6 1125 15.520366650675 20.119810062046 21346.19397067 409085.38742745
178	4009441 37301 165008 20982113 24.1 136.6 1126 179.4410342064 2145.3947809815 1228907.1088884 1752337063.2352
177	4046742 37288 165008 20982113 24.1 136.6 1126 107.21767952072 382.94573088875 356775.84772371 121569748.53751
132	4084030 36972 76504 21145461 18.3 137.1 1189 0.56276049580677 8.9022577247039 3782.2209591931 17015.53255371
131	4121002 41221 76504 21145461 18.3 137.1 1189 -1.250808378798 1.251785185351 0.068079695967003 326.77205537244
130	4162223 39315 75243 21145461 18.2 137.1 1190 19.990191545244 20.119966582269 23866.153321451 478651.38095114
129	4201538 39355 73982 21145461 18.1 137.1 1191 25.468365901599 2141.902346661 1214335.2711116 1738757271.3796
128	4240893 39365 73982 21145461 18.1 137.1 1191 28.176546607993 395.96682736403 375833.15236842 131307051.02916
vector 968  LocScenario.node[138].veinsmobility  posx  ETV
vector 969  LocScenario.node[138].veinsmobility  posy  ETV
vector 975  LocScenario.node[139].veinsmobility  posx  ETV
vector 976  LocScenario.node[139].veinsmobility  posy  ETV
vector 970  LocScenario.node[138].veinsmobility  speed  ETV
vector 977  LocScenario.node[139].veinsmobility  speed  ETV
vector 971  LocScenario.node[138].veinsmobility  acceleration  ETV
vector 972  LocScenario.node[138].veinsmobility  co2emission  ETV
vector 978  LocScenario.node[139].veinsmobility  acceleration  ETV
vector 979  LocScenario.node[139].veinsmobility  co2emission  ETV
195	4280880 34917 211249 21631522 26.3 138.6 1124 0.56106753045505 14.503209935669 3606.960597052 17222.087949065
194	4315797 39063 211249 21631522 26.3 138.6 1124 -1.2870714109391 2.4366910917685 44.43391796262 394.46403658886
193	4354860 37312 208861 21631522 26.2 138.6 1125 15.521158400744 20.119951229803 21334.357518264 408654.95525235
192	4392172 37355 206473 21631522 26.1 138.6 1126 177.20127428924 2144.2104701215 1227613.8508159 1749700116.5382
191	4429527 37347 206473 21631522 26.1 138.6 1126 107.34351254959 386.24380032592 358533.22187385 122752621.75095
146	4466874 36977 102240 21794732 20.3 139.1 1189 0.55109860043835 8.9634686549448 3788.7469818579 17346.508170714
145	4503851 41308 102240 21794732 20.3 139.1 1189 -1.2294732077746 1.2643991750432 0.54320382813458 339.30390231062
144	4545159 39403 100721 21794732 20.2 139.1 1190 19.990215385095 20.119970024223 23862.746743525 478514.85919809
143	4584562 39442 99202 21794732 20.1 139.1 1191 25.688212184069 2142.3146825603 1214472.5908716 1738900858.0052
142	4624004 39438 99202 21794732 20.1 139.1 1191 28.445204232041 395.96929113067 375905.05833623 131337520.33923
vector 982  LocScenario.node[140].veinsmobility  posx  ETV
vector 983  LocScenario.node[140].veinsmobility  posy  ETV
vector 989  LocScenario.node[141].veinsmobility  posx  ETV
vector 990  LocScenario.node[141].veinsmobility  posy  ETV
vector 984  LocScenario.node[140].veinsmobility  speed  ETV
vector 991  LocScenario.node[141].veinsmobility  speed  ETV
vector 985  LocScenario.node[140].veinsmobility  acceleration  ETV
vector 986  LocScenario.node[140].veinsmobility  co2emission  ETV
vector 992  LocScenario.node[141].veinsmobility  acceleration  ETV
vector 993  LocScenario.node[141].veinsmobility  co2emission  ETV
209	4664064 35149 259844 22281618 28.3 140.6 1124 0.55573353992909 13.238821076854 3570.7858668939 17015.155670613
208	4699213 39172 259844 22281618 28.3 140.6 1124 -1.2418838129612 2.583031687839 44.417605719902 385.14597091429
207	4738385 37407 257129 22281618 28.2 140.6 1125 15.520024104151 20.119828637023 21340.214407873 408860.65811244
206	4775792 37421 254414 22281618 28.1 140.6 1126 177.20127428924 2144.8036428842 1228157.8111819 1751088418.8491
205	4813213 37389 254414 22281618 28.1 140.6 1126 107.28048794355 386.2450611579 358451.31797335 122712151.39935
160	4850602 37078 132927 22445255 22.3 141.1 1189 0.55430608596635 9.0494912269346 3766.5608974463 17143.267665716
159	4887680 41370 132927 22445255 22.3 141.1 1189 -1.2822189043975 1.2821335005574 -0.15053305353504 331.04323389085
158	4929050 39483 131156 22445255 22.2 141.1 1190 19.990079874061 20.119256575068 23866.189760674 478652.9343925
157	4968533 39491 129355 22445255 22.1 141.1 1191 25.467261470293 2141.902346661 1214318.5121983 1738696603.7838
156	5008024 39512 129355 22445255 22.1 141.1 1191 28.175196965474 395.96638718145 375842.25790736 131312100.16627
vector 996  LocScenario.node[142].veinsmobility  posx  ETV
vector 997  LocScenario.node[142].veinsmobility  posy  ETV
vector 1003  LocScenario.node[143].veinsmobility  posx  ETV
vector 1004  LocScenario.node[143].veinsmobility  posy  ETV
vector 998  LocScenario.node[142].veinsmobility  speed  ETV
vector 1005  LocScenario.node[143].veinsmobility  speed  ETV
vector 999  LocScenario.node[142].veinsmobility  acceleration  ETV
vector 1000  LocScenario.node[142].veinsmobility  co2emission  ETV
vector 1006  LocScenario.node[143].veinsmobility  acceleration  ETV
vector 1007  LocScenario.node[143].veinsmobility  co2emission  ETV
223	5048164 35040 315139 22932235 30.3 142.6 1124 0.55590520101549 14.28444140315 3590.7787120928 17291.238801753
222	5083204 39201 315139 22932235 30.3 142.6 1124 -1.2159819163149 2.5394881156739 44.997385709733 399.57648702183
221	5122405 37455 312042 22932235 30.2 142.6 1125 15.520544344746 20.119973833873 21339.927371822 408852.7517966
220	5159860 37468 308988 22932235 30.1 142.6 1126 179.4410342064 2144.7720992339 1228439.7468743 1751141242.5246
219	5197328 37478 308988 22932235 30.1 142.6 1126 107.2838394564 382.9436131193 356836.95444187 121597549.71027
174	5234806 37080 169155 23095939 24.3 143.1 1189 0.5607497976701 9.0076677064112 3805.0552987002 17400.299907361
173	5271886 41403 169155 23095939 24.3 143.1 1189 -1.2552141698543 1.2734433233272 0.75019234253556 343.60637001554
172	5313289 39535 167081 23095939 24.2 143.1 1190 19.990021041273 20.119952244477 23864.34617483 478579.01027579
171	5352824 39527 165008 23095939 24.1 143.1 1191 25.588418687514 2142.3146825603 1214397.9790753 1738806406.7617
170	5392351 39549 165008 23095939 24.1 143.1 1191 28.323254097708 395.96886260506 375875.50368837 131324435.54526
vector 1010  LocScenario.node[144].veinsmobility  posx  ETV
vector 1011  LocScenario.node[144].veinsmobility  posy  ETV
vector 1017  LocScenario.node[145].veinsmobility  posx  ETV
vector 1018  LocScenario.node[145].veinsmobility  posy  ETV
vector 1012  LocScenario.node[144].veinsmobility  speed  ETV
vector 1019  LocScenario.node[145].veinsmobility  speed  ETV
vector 1013  LocScenario.node[144].veinsmobility  acceleration  ETV
vector 1014  LocScenario.node[144].veinsmobility  co2emission  ETV
vector 1020  LocScenario.node[145].veinsmobility  acceleration  ETV
vector 1021  LocScenario.node[145].veinsmobility  co2emission  ETV
237	5432532 35030 377082 23583880 32.3 144.6 1124 0.55378199717043 13.928105297284 3580.2513015899 17195.456240547
236	5467562 39273 377082 23583880 32.3 144.6 1124 -1.2409145140788 2.4976593131665 43.883315272676 394.92129661436
235	5506835 37504 373678 23583880 32.2 144.6 1125 15.521226228753 20.119904399482 21340.389966666 408867.47492248
234	5544339 37550 370274 23583880 32.1 144.6 1126 177.20127428924 2144.8185107554 1228134.3593146 1751045204.1813
233	5581889 37524 370274 23583880 32.1 144.6 1126 107.27890823224 386.2447657872 358461.19646623 122719217.50437
188	5619413 37135 211249 23747625 26.3 145.1 1189 0.56244606509562 8.79865741009 3796.2132479792 17437.243206506
187	5656548 41465 211249 23747625 26.3 145.1 1189 -1.2292537897127 1.2306083222386 -1.1049205587711 347.1640633051
186	5698013 39578 208861 23747625 26.2 145.1 1190 19.990024178338 20.119733447121 23867.526391216 478706.56785517
185	5737591 39627 206473 23747625 26.1 145.1 1191 25.381353799617 2141.902346661 1214137.3900058 1738365678.0441
184	5777218 39619 206473 23747625 26.1 145.1 1191 28.07021565566 395.96306358726 375824.44007801 131306346.02605
vector 1024  LocScenario.node[146].veinsmobility  posx  ETV
vector 1025  LocScenario.node[146].veinsmobility  posy  ETV
vector 1031  LocScenario.node[147].veinsmobility  posx  ETV
vector 1032  LocScenario.node[147].veinsmobility  posy  ETV
vector 1026  LocScenario.node[146].veinsmobility  speed  ETV
vector 1033  LocScenario.node[147].veinsmobility  speed  ETV
vector 1027  LocScenario.node[146].veinsmobility  acceleration  ETV
vector 1028  LocScenario.node[146].veinsmobility  co2emission  ETV
vector 1034  LocScenario.node[147].veinsmobility  acceleration  ETV
vector 1035  LocScenario.node[147].veinsmobility  co2emission  ETV
251	5817469 35227 446224 24235510 34.3 146.6 1124 0.56802079099929 13.786852545138 3588.4216758831 17110.759252421
250	5852696 39303 446224 24235510 34.3 146.6 1124 -1.2829496204387 2.4744293702999 43.954149900284 391.38491694483
249	5891999 37570 442456 24235510 34.2 146.6 1125 15.520311985577 20.119822046836 21342.763545656 408966.14400915
248	5929569 37610 438688 24235510 34.1 146.6 1126 179.4410342064 2145.0556893247 1228626.3221951 1751673159.5388
247	5967179 37593 438688 24235510 34.1 146.6 1126 107.25370800925 382.94356396495 356800.01414407 121579479.87476
202	6004772 37266 259844 24399763 28.3 147.1 1189 0.56505716583256 8.7835498942509 3783.2970999131 17232.308573637
201	6042038 41491 259844 24399763 28.3 147.1 1189 -1.2893085424323 1.2273553088308 -0.40601440491155 335.63488967223
200	6083529 39615 257129 24399763 28.2 147.1 1190 19.99008840818 20.119821976705 23865.872448497 478640.1933585
199	6123144 39653 254414 24399763 28.1 147.1 1191 25.487899261915 2142.3146825603 1214342.9343948 1738732786.6985
198	6162797 39669 254414 24399763 28.1 147.1 1191 28.20041686003 395.96785325515 375857.24134665 131318600.10406
vector 1038  LocScenario.node[148].veinsmobility  posx  ETV
vector 1039  LocScenario.node[148].veinsmobility  posy  ETV
vector 1045  LocScenario.node[149].veinsmobility  posx  ETV
vector 1046  LocScenario.node[149].veinsmobility  posy  ETV
vector 1040  LocScenario.node[148].veinsmobility  speed  ETV
vector 1047  LocScenario.node[149].veinsmobility  speed  ETV
vector 1041  LocScenario.node[148].veinsmobility  acceleration  ETV
vector 1042  LocScenario.node[148].veinsmobility  co2emission  ETV
vector 1048  LocScenario.node[149].veinsmobility  acceleration  ETV
vector 1049  LocScenario.node[149].veinsmobility  co2emission  ETV
265	6203098 35316 522589 24888217 36.3 148.6 1124 0.5739845529792 14.444382804724 3566.6149696044 17130.012938671
264	6238414 39392 522589 24888217 36.3 148.6 1124 -1.2507268822519 2.5222480412107 45.152026949218 385.91239998778
263	6277806 37627 518418 24888217 36.2 148.6 1125 15.520681775284 20.119802971166 21341.982457214 408921.98583931
262	6315433 37648 514247 24888217 36.1 148.6 1126 177.20127428924 2144.970323769 1228320.229503 1751516083.2631
261	6353081 37646 514247 24888217 36.1 148.6 1126 107.26277809954 386.24553983358 358430.11861678 122702688.86707
216	6390727 37431 315139 25052184 30.3 149.1 1189 0.55450275952084 8.8309470107708 3778.7205592535 17344.889894079
215	6428158 41607 315139 25052184 30.3 149.1 1189 -1.2790588509291 1.2375034706201 0.27051091110334 341.58380568434
214	6469765 39672 312042 25052184 30.2 149.1 1190 19.990057140565 20.119999478573 23867.18326251 478692.80151625
213	6509437 39746 308988 25052184 30.1 149.1 1191 25.405017497252 2141.902346661 1214219.0170899 1738540501.5525
212	6549183 39702 308988 25052184 30.1 149.1 1191 28.09913328261 395.96398144457 375818.88702247 131303238.03185
vector 1052  LocScenario.node[150].veinsmobility  posx  ETV
vector 1053  LocScenario.node[150].veinsmobility  posy  ETV
vector 1059  LocScenario.node[151].veinsmobility  posx  ETV
vector 1060  LocScenario.node[151].veinsmobility  posy  ETV
vector 1054  LocScenario.node[150].veinsmobility  speed  ETV
vector 1061  LocScenario.node[151].veinsmobility  speed  ETV
vector 1055  LocScenario.node[150].veinsmobility  acceleration  ETV
vector 1056  LocScenario.node[150].veinsmobility  co2emission  ETV
vector 1062  LocScenario.node[151].veinsmobility  acceleration  ETV
vector 1063  LocScenario.node[151].veinsmobility  co2emission  ETV
279	6589517 35150 605842 25540188 38.3 150.6 1124 0.55183379428686 13.773979406556 3626.4611273836 17942.282745121
278	6624667 39425 605842 25540188 38.3 150.6 1124 -1.2960969371488 2.5692313826643 44.738201013347 432.57306028967
277	6664092 37701 601372 25540188 38.2 150.6 1125 15.52022168919 20.119880956837 21345.137770598 409036.49154437
276	6701793 37711 596903 25540188 38.1 150.6 1126 179.4410342064 2145.2870790181 1228987.6359726 1752527550.7618
275	6739504 37714 596903 25540188 38.1 150.6 1126 107.22912285433 382.94519580175 356762.30848707 121561167.7858
230	6777218 37341 377082 25704061 32.3 151.1 1189 0.55504271459196 9.047524215481 3792.5762293152 17358.073209896
229	6814559 41649 377082 25704061 32.3 151.1 1189 -1.2292127160588 1.2818037293619 0.2975183098344 339.89739079763
228	6856208 39760 373678 25704061 32.2 151.1 1190 19.990004677705 20.119948237117 23864.614427448 478589.73461206
227	6895968 39816 370274 25704061 32.1 151.1 1191 25.567336153769 2142.3146825603 1214309.6765255 1738660438.732
226	6935784 39793 370274 25704061 32.1 151.1 1191 28.297490717216 395.96682594491 375870.6291596 131322550.85469
vector 1066  LocScenario.node[152].veinsmobility  posx  ETV
vector 1067  LocScenario.node[152].veinsmobility  posy  ETV
vector 1073  LocScenario.node[153].veinsmobility  posx  ETV
vector 1074  LocScenario.node[153].veinsmobility  posy  ETV
vector 1068  LocScenario.node[152].veinsmobility  speed  ETV
vector 1075  LocScenario.node[153].veinsmobility  speed  ETV
vector 1069  LocScenario.node[152].veinsmobility  acceleration  ETV
vector 1070  LocScenario.node[152].veinsmobility  co2emission  ETV
vector 1076  LocScenario.node[153].veinsmobility  acceleration  ETV
vector 1077  LocScenario.node[153].veinsmobility  co2emission  ETV
293	6976209 35387 696372 26190793 40.3 152.6 1124 0.57261434019291 13.870051544045 3608.2815901427 17259.909352334
292	7011596 39481 696372 26190793 40.3 152.6 1124 -1.2467887627194 2.5953665897716 44.625374486926 397.08817346923
291	7051077 37766 691563 26190793 40.2 152.6 1125 15.520461560388 20.119378134045 21343.303968222 408977.51562012
290	7088843 37788 686696 26190793 40.1 152.6 1126 177.20127428924 2145.1115155177 1228388.9275339 1751745684.1227
289	7126631 37780 686696 26190793 40.1 152.6 1126 107.24777647624 386.24349612037 358404.29179214 122688388.31906
244	7164411 37387 446224 26354095 34.3 153.1 1189 0.55336825142438 8.7025551501941 3825.2641569348 17618.155564333
243	7201798 41734 446224 26354095 34.3 153.1 1189 -1.2583690414438 1.2112491447711 0.88293389191385 353.45460302264
242	7243532 39833 442456 26354095 34.2 153.1 1190 19.990040949767 20.119895664898 23864.425340736 478582.19333207
241	7283365 39859 438688 26354095 34.1 153.1 1191 25.584754799489 2142.3146825603 1214372.957346 1738793366.2255
240	7323224 39870 438688 26354095 34.1 153.1 1191 28.318776735431 395.9686394794 375865.47269973 131319627.51565
vector 1080  LocScenario.node[154].veinsmobility  posx  ETV
vector 1081  LocScenario.node[154].veinsmobility  posy  ETV
vector 1087  LocScenario.node[155].veinsmobility  posx  ETV
vector 1088  LocScenario.node[155].veinsmobility  posy  ETV
vector 1082  LocScenario.node[154].veinsmobility  speed  ETV
vector 1089  LocScenario.node[155].veinsmobility  speed  ETV
vector 1083  LocScenario.node[154].veinsmobility  acceleration  ETV
vector 1084  LocScenario.node[154].veinsmobility  co2emission  ETV
vector 1090  LocScenario.node[155].veinsmobility  acceleration  ETV
vector 1091  LocScenario.node[155].veinsmobility  co2emission  ETV
307	7363726 35327 793885 26840792 42.3 154.6 1124 0.55793681999581 13.603296585866 3615.4408092636 17552.12169369
306	7399053 39534 793885 26840792 42.3 154.6 1124 -1.2183681218652 2.5267974126851 45.647636055318 413.80895698151
305	7438587 37800 788731 26840792 42.2 154.6 1125 15.52029822109 20.119926886656 21341.6118797 408914.0914037
304	7476387 37832 783565 26840792 42.1 154.6 1126 179.4410342064 2144.9329825487 1228599.0903284 1751544913.7389
303	7514219 37830 783565 26840792 42.1 154.6 1126 107.2667456042 382.94563461807 356818.87256368 121589692.11128
258	7552049 37529 522589 27004228 36.3 155.1 1189 0.5579041450752 9.0454931878779 3769.1839329368 17458.491520298
257	7589578 41753 522589 27004228 36.3 155.1 1189 -1.1981093998998 1.2812214638572 -0.19621705613101 344.19958827377
256	7631331 39884 518418 27004228 36.2 155.1 1190 19.990121660102 20.119963713954 23865.765560151 478635.93789286
255	7671215 39911 514247 27004228 36.1 155.1 1191 25.493755754893 2141.902346661 1214269.8672297 1738570156.9057
254	7711126 39928 514247 27004228 36.1 155.1 1191 28.207573640083 395.96630853495 375849.14091254 131315469.82759
vector 1094  LocScenario.node[156].veinsmobility  posx  ETV
vector 1095  LocScenario.node[156].veinsmobility  posy  ETV
vector 1101  LocScenario.node[157].veinsmobility  posx  ETV
vector 1102  LocScenario.node[157].veinsmobility  posy  ETV
vector 1096  LocScenario.node[156].veinsmobility  speed  ETV
vector 1103  LocScenario.node[157].veinsmobility  speed  ETV
vector 1097  LocScenario.node[156].veinsmobility  acceleration  ETV
vector 1098  LocScenario.node[156].veinsmobility  co2emission  ETV
vector 1104  LocScenario.node[157].veinsmobility  acceleration  ETV
vector 1105  LocScenario.node[157].veinsmobility  co2emission  ETV
321	7751686 35559 897901 27491531 44.3 156.6 1124 0.55117891010373 14.189199211833 3569.00664636 16958.767984072
320	7787245 39619 897901 27491531 44.3 156.6 1124 -1.284515162278 2.5531237046001 44.927797705354 384.13594274936
319	7826864 37869 892381 27491531 44.2 156.6 1125 15.520003776567 20.119952662599 21346.658604887 409095.94354237
318	7864733 37909 886861 27491531 44.1 156.6 1126 177.20127428924 2145.4406654724 1228698.8343847 1752529968.9598
317	7902642 37901 886861 27491531 44.1 156.6 1126 107.21280429356 386.24643594494 358364.62526156 122671009.22277
272	7940543 37532 605842 27655520 38.3 157.1 1189 0.55356317367482 9.0381985927046 3773.6300051982 17128.802007933
271	7978075 41847 605842 27655520 38.3 157.1 1189 -1.2589338238584 1.2798411769094 -0.77141221433411 331.52335233352
270	8019922 39957 601372 27655520 38.2 157.1 1190 19.990044740257 20.119923923542 23866.227258798 478654.42376669
269	8059879 39972 596903 27655520 38.1 157.1 1191 25.465817599021 2142.7175664701 1214671.2904149 1740051376.5674
268	8099851 39980 596903 27655520 38.1 157.1 1191 28.173432518874 395.9671895034 377431.92491969 132240935.55127
vector 1108  LocScenario.node[158].veinsmobility  posx  ETV
vector 1109  LocScenario.node[158].veinsmobility  posy  ETV
vector 1115  LocScenario.node[159].veinsmobility  posx  ETV
vector 1116  LocScenario.node[159].veinsmobility  posy  ETV
vector 1110  LocScenario.node[158].veinsmobility  speed  ETV
vector 1117  LocScenario.node[159].veinsmobility  speed  ETV
vector 1111  LocScenario.node[158].veinsmobility  acceleration  ETV
vector 1112  LocScenario.node[158].veinsmobility  co2emission  ETV
vector 1118  LocScenario.node[159].veinsmobility  acceleration  ETV
vector 1119  LocScenario.node[159].veinsmobility  co2emission  ETV
335	8140463 35541 1009730 28144667 46.3 158.6 1124 0.55646356710375 14.185627309535 3588.0765438235 17213.790756302
334	8176004 39687 1009730 28144667 46.3 158.6 1124 -1.2203683404019 2.5649436912267 43.966968804831 396.02929930912
333	8215691 37947 1003805 28144667 46.2 158.6 1125 15.520365457966 20.119807674265 21344.340727816 409015.19238464
332	8253638 37952 997828 28144667 46.1 158.6 1126 179.4410342064 2145.2165804101 1228754.5151668 1751945764.9272
331	8291590 37969 997828 28144667 46.1 158.6 1126 107.23661333143 382.94436291371 356796.9260635 121579066.0601
286	8329559 37634 696372 28308985 40.3 159.1 1189 0.55492327166878 9.0066481512257 3762.3418545125 17168.41715899
285	8367193 41850 696372 28308985 40.3 159.1 1189 -1.2857061699033 1.2733718182426 0.45321643224454 330.82741152474
284	8409043 40014 691563 28308985 40.2 159.1 1190 19.990130965933 20.119955688247 23864.67477343 478592.13559298
283	8449057 40033 686696 28308985 40.1 159.1 1191 25.56780406564 2141.902346661 1214375.4999577 1738791186.9384
282	8489090 40037 686696 28308985 40.1 159.1 1191 28.298062517158 395.96825160525 375866.73336174 131321271.38161
vector 1122  LocScenario.node[160].veinsmobility  posx  ETV
vector 1123  LocScenario.node[160].veinsmobility  posy  ETV
vector 1129  LocScenario.node[161].veinsmobility  posx  ETV
vector 1130  LocScenario.node[161].veinsmobility  posy  ETV
vector 1124  LocScenario.node[160].veinsmobility  speed  ETV
vector 1131  LocScenario.node[161].veinsmobility  speed  ETV
vector 1125  LocScenario.node[160].veinsmobility  acceleration  ETV
vector 1126  LocScenario.node[160].veinsmobility  co2emission  ETV
vector 1132  LocScenario.node[161].veinsmobility  acceleration  ETV
vector 1133  LocScenario.node[161].veinsmobility  co2emission  ETV
349	8529759 35583 1129983 28798275 48.3 160.6 1124 0.56494805414429 13.986991726878 3605.5798439639 17545.533608305
348	8565342 39685 1129983 28798275 48.3 160.6 1124 -1.2151700254762 2.5774627699051 44.97488053767 412.74774567062
347	8605027 37960 1123640 28798275 48.2 160.6 1125 15.520048371598 20.119694328173 21345.624909137 409060.77420837
346	8642987 38011 1117297 28798275 48.1 160.6 1126 177.20127428924 2145.3382999367 1228548.6001741 1752170265.3524
345	8680998 38004 1117297 28798275 48.1 160.6 1126 107.22368063173 386.24562569468 358378.09702134 122676923.3205
300	8719002 37647 793885 28962674 42.3 161.1 1189 0.54919934664255 8.7834996668246 3779.4555875388 17191.114545936
299	8756649 41983 793885 28962674 42.3 161.1 1189 -1.1838650019607 1.2273370905314 -0.37028354536741 333.43163299857
298	8798632 40072 788731 28962674 42.2 161.1 1190 19.990075172626 20.11995794185 23866.174303122 478652.33779743
297	8838704 40082 783565 28962674 42.1 161.1 1191 25.47108480601 2142.3146825603 1214213.2759793 1738496766.4224
296	8878786 40098 783565 28962674 42.1 161.1 1191 28.179869176794 395.96433452505 375850.31621425 131315315.30906
vector 1136  LocScenario.node[162].veinsmobility  posx  ETV
vector 1137  LocScenario.node[162].veinsmobility  posy  ETV
vector 1143  LocScenario.node[163].veinsmobility  posx  ETV
vector 1144  LocScenario.node[163].veinsmobility  posy  ETV
vector 1138  LocScenario.node[162].veinsmobility  speed  ETV
vector 1145  LocScenario.node[163].veinsmobility  speed  ETV
vector 1139  LocScenario.node[162].veinsmobility  acceleration  ETV
vector 1140  LocScenario.node[162].veinsmobility  co2emission  ETV
vector 1146  LocScenario.node[163].veinsmobility  acceleration  ETV
vector 1147  LocScenario.node[163].veinsmobility  co2emission  ETV
363	8919516 35642 1259327 29450198 50.3 162.6 1124 0.56783904348719 14.688723351661 3579.3092098316 17284.797485414
362	8955158 39745 1259327 29450198 50.3 162.6 1124 -1.2507441873662 2.5448307922343 43.908705500257 397.57025983259
361	8994903 38008 1252525 29450198 50.2 162.6 1125 15.521985377297 20.119899287522 21344.839660621 409032.65447382
360	9032911 38043 1245712 29450198 50.1 162.6 1126 177.20127428924 2145.2634299942 1228549.9529717 1752180868.3963
359	9070954 38041 1245712 29450198 50.1 162.6 1126 107.23163556312 386.2444359981 358377.28449722 122675012.74557
[...]
1278	36952207 42486 35828805 60703977 182.2 301.1 1190 19.990227086153 20.119683150691 23866.282668698 478656.80058793
1277	36994693 42486 35795964 60703977 182.1 301.1 1191 25.465254400041 2141.902346661 1214237.5184083 1738458129.5141
1276	37037179 42476 35795964 60703977 182.1 301.1 1191 28.172744275715 395.96759196359 375859.10230983 131321617.56765
1343	37079655 37689 38462187 60753444 190.3 302.6 1124 0.5980114728984 14.692076845325 3595.80954079 17535.706119836
1342	37117344 41869 38462187 60753444 190.3 302.6 1124 -1.2629109557951 2.576899513905 44.590592692723 413.00885489119
1341	37159213 40155 38429562 60753444 190.2 302.6 1125 15.520121515784 20.119703259892 21345.442076356 409051.98219927
1340	37199368 40199 38396744 60753444 190.1 302.6 1126 177.20127428924 2145.3174658293 1228607.3102403 1752273384.4165
1339	37239567 40191 38396744 60753444 190.1 302.6 1126 107.22589425564 386.24467599281 358380.41459124 122676816.12489
1294	37279758 40358 36512064 60769262 184.3 303.1 1189 0.55496545665191 8.8603351283325 3760.2279270084 16779.1503645
1293	37320116 44335 36512064 60769262 184.3 303.1 1189 -1.2966446039267 1.2432149946457 0.11112914783879 317.19059455932
1292	37364451 42455 36479301 60769262 184.2 303.1 1190 19.990099914554 20.11998323078 23867.947975278 478723.39881424
1291	37406906 42517 36446519 60769262 184.1 303.1 1191 25.357161023635 2142.7175664701 1214585.7803973 1739957573.6419
1290	37449423 42498 36446519 60769262 184.1 303.1 1191 28.040651481813 395.96284035309 377399.2537976 132227803.1342
1357	37491921 37541 39111813 60813779 192.3 304.6 1124 0.56066993319206 14.105947538056 3605.4304448001 17510.739064755
1356	37529462 41853 39111813 60813779 192.3 304.6 1124 -1.2535551208304 2.476034360705 44.425633905153 409.98529084748
1355	37571315 40140 39079159 60813779 192.2 304.6 1125 15.520544178393 20.119826378911 21336.189060949 408717.35289332
1354	37611455 40198 39046330 60813779 192.1 304.6 1126 179.4410342064 2144.4000555513 1228166.6673567 1750393798.3882
1353	37651653 40184 39046330 60813779 192.1 304.6 1126 107.32336909767 382.94345261836 356888.5936259 121622908.2583
1308	37691837 39991 37162489 60827947 186.3 305.1 1189 0.56591223094871 8.9015201797456 3795.1738863169 17634.1115098
1307	37731828 44376 37162489 60827947 186.3 305.1 1189 -1.2544837068534 1.2518864695914 0.018446447025049 352.43450308983
1306	37776204 42467 37129738 60827947 186.2 305.1 1190 19.990107106166 20.119837592109 23865.335314259 478618.7475371
1305	37818671 42505 37096870 60827947 186.1 305.1 1191 25.525243166214 2141.902346661 1214320.7468066 1738700873.1369
1304	37861176 42520 37096870 60827947 186.1 305.1 1191 28.246052039708 395.96659253556 375847.49630499 131312811.86275
1371	37903696 37666 39760767 60867514 194.3 306.6 1124 0.56611633406678 14.729932683164 3622.8957611086 17759.335954162
1370	37941362 41848 39760767 60867514 194.3 306.6 1124 -1.2480915563647 2.5648047015537 44.568073362205 424.52173464962
1369	37983210 40133 39728064 60867514 194.2 306.6 1125 15.521062140595 20.119790231402 21344.333298961 409008.24249732
1368	38023343 40182 39695319 60867514 194.1 306.6 1126 177.20127428924 2145.2115247889 1228583.4976751 1752190105.8878
1367	38063525 40184 39695319 60867514 194.1 306.6 1126 107.23715049118 386.2446626629 358396.70643139 122686976.53304
1322	38103709 39971 37812502 60880032 188.3 307.1 1189 0.55061797444828 8.9716801484146 3803.7471654036 17239.369219218
1321	38143680 44344 37812502 60880032 188.3 307.1 1189 -1.2639274524525 1.2662125487114 0.59143038010223 335.7263449273
1320	38188024 42482 37779804 60880032 188.2 307.1 1190 19.990081240297 20.119807859415 23866.356387252 478659.61037171
1319	38230506 42479 37747034 60880032 188.1 307.1 1191 25.460037227086 2142.7175664701 1214711.7763154 1740137848.275
1318	38272985 42497 37747034 60880032 188.1 307.1 1191 28.16636876063 395.96629114161 377427.72753358 132238620.70549
1385	38315482 37823 40409864 60914649 196.3 308.6 1124 0.5631483487871 14.714457527998 3586.1917581683 17315.312731731
1384	38353305 41879 40409864 60914649 196.3 308.6 1124 -1.2728254429996 2.515977642173 45.243537791143 398.89521101195
1383	38395184 40135 40377192 60914649 196.2 308.6 1125 15.520261398545 20.119987874373 21344.839135165 409026.08607505
1382	38435319 40193 40344442 60914649 196.1 308.6 1126 177.20127428924 2145.255974203 1228559.9242285 1752182022.5538
1381	38475512 40184 40344442 60914649 196.1 308.6 1126 107.23242774093 386.24627052889 358383.5152776 122678805.17522
1336	38515696 40232 38462187 60925565 190.3 309.1 1189 0.56886248496852 8.8167403599067 3781.1405859958 17018.701749755
1335	38555928 44353 38462187 60925565 190.3 309.1 1189 -1.2395185631467 1.234575337707 0.13133132921066 326.29133703023
1334	38600281 42459 38429562 60925565 190.2 309.1 1190 19.990146405965 20.11981742997 23866.23325463 478654.71517532
1333	38642740 42496 38396744 60925565 190.1 309.1 1191 25.466300370321 2142.3146825603 1214277.1803721 1738641336.7397
1332	38685236 42520 38396744 60925565 190.1 309.1 1191 28.174022477408 395.96479208738 375843.84787183 131312369.33798
1399	38727756 37774 41059715 60955412 198.3 310.6 1124 0.58274026264679 14.049125309747 3571.6343414132 17067.86061076
1398	38765530 41903 41059715 60955412 198.3 310.6 1124 -1.2873097961303 2.5799624470994 44.264460471878 388.68338261982
1397	38807433 40110 41027092 60955412 198.2 310.6 1125 15.520973973803 20.119676321053 21343.28545994 408980.16744027
1396	38847543 40175 40994317 60955412 198.1 310.6 1126 179.4410342064 2145.1108951147 1228701.0220159 1751829630.5501
1395	38887718 40196 40994317 60955412 198.1 310.6 1126 107.24784239407 382.9441559836 356796.38879795 121578085.52654
1350	38927914 40048 39111813 60964786 192.3 311.1 1189 0.55915876286451 8.7893680862698 3767.8406729071 17089.347894719
1349	38967962 44334 39111813 60964786 192.3 311.1 1189 -1.2475231433054 1.2286656407174 0.5065946964314 326.73076906335
1348	39012296 42451 39079159 60964786 192.2 311.1 1190 19.990405162962 20.119848260575 23867.427812179 478702.56365959
1347	39054747 42512 39046330 60964786 192.1 311.1 1191 25.394432176186 2142.7175664701 1214638.853549 1740018034.3108
1346	39097259 42505 39046330 60964786 192.1 311.1 1191 28.086197757044 395.96454405788 377417.95847379 132236191.11559
1413	39139764 37687 41709251 60990211 200.3 312.6 1124 0.56992513858591 13.454666170961 3589.1361072497 17264.807146983
1412	39177451 41870 41709251 60990211 200.3 312.6 1124 -1.2450793977128 2.5656523745973 44.134263486508 399.43834525166
1411	39219321 40139 41676505 60990211 200.2 312.6 1125 15.520208439834 20.11997879422 21342.519981033 408948.35323375
1410	39259460 40201 41643857 60990211 200.1 312.6 1126 179.4410342064 2145.0316485691 1228664.9904954 1751723127.201
1409	39299661 40191 41643857 60990211 200.1 312.6 1126 107.25626233953 382.94393396892 356806.66523892 121583413.00258
1364	39339852 39986 39760767 60998163 194.3 313.1 1189 0.56096625783147 8.7642392854771 3804.8471861886 17008.003206048
1363	39379838 44366 39760767 60998163 194.3 313.1 1189 -1.2384589343099 1.2235001650406 -0.085333556588728 326.33168904992
1362	39424204 42486 39728064 60998163 194.2 313.1 1190 19.990080382775 20.119960518745 23862.841751327 478518.66473237
1361	39466690 42512 39695319 60998163 194.1 313.1 1191 25.681487569707 2142.7175664701 1214899.8510561 1740430557.6889
1360	39509202 42516 39695319 60998163 194.1 313.1 1191 28.436986586072 395.96947747756 377480.12396236 132258277.84034
1427	39551718 37926 42358120 61019526 202.3 314.6 1124 0.55028670181146 13.909270994867 3568.6022673114 16832.621201108
1426	39589644 41894 42358120 61019526 202.3 314.6 1124 -1.2560588218505 2.56560855594 43.950159575744 380.84443685733
1425	39631538 40154 42325439 61019526 202.2 314.6 1125 15.520726024474 20.119641697658 21339.563637419 408845.8391351
1424	39671692 40198 42292951 61019526 202.1 314.6 1126 179.4410342064 2144.7392744016 1228439.6319265 1751169957.6622
1423	39711890 40189 42292951 61019526 202.1 314.6 1126 107.28732709483 382.94415928353 356832.05923015 121595475.736
1378	39752079 39923 40409864 61026176 196.3 315.1 1189 0.55012278038609 8.7947690403984 3826.1910028626 17704.192887849
1377	39792002 44321 40409864 61026176 196.3 315.1 1189 -1.2936814673012 1.2296240034746 0.21461273799648 358.42462799368
1376	39836323 42446 40377192 61026176 196.2 315.1 1190 19.990241156619 20.11989576451 23863.50627157 478545.30696171
1375	39878769 42510 40344442 61026176 196.1 315.1 1191 25.641502519304 2142.3146825603 1214493.717047 1738998642.2116
1374	39921279 42525 40344442 61026176 196.1 315.1 1191 28.388123860179 395.9691198677 375890.33686794 131330573.70697
1441	39963804 37749 43008358 61043837 204.3 316.6 1124 0.55945674198801 14.437268061415 3612.70631177 17677.439224149
1440	40001553 41862 43008358 61043837 204.3 316.6 1124 -1.287694452866 2.58896318716 44.542228892702 417.34104226672
1439	40043415 40150 42975574 61043837 204.2 316.6 1125 15.520088459665 20.119920423443 21341.517409953 408917.9770918
1438	40083565 40173 42942799 61043837 204.1 316.6 1126 177.20127428924 2144.9282241376 1228233.3511409 1751352880.7032
1437	40123738 40178 42942799 61043837 204.1 316.6 1126 107.26725118538 386.24346638308 358428.0440383 122700433.66698
1392	40163916 39945 41059715 61049305 198.3 317.1 1189 0.56796626383704 8.6460286168691 3825.1390623929 17712.195197901
1391	40203861 44343 41059715 61049305 198.3 317.1 1189 -1.2717561032856 1.1992686346174 0.081337209627962 358.41346748005
1390	40248204 42476 41027092 61049305 198.2 317.1 1190 19.990256097561 20.11966369658 23865.791990355 478637.04157201
1389	40290680 42497 40994317 61049305 198.1 317.1 1191 25.495002601452 2141.902346661 1214272.4352086 1738633721.4761
1388	40333177 42503 40994317 61049305 198.1 317.1 1191 28.209097317583 395.96581750343 375837.10054906 131308671.83348
1455	40375680 37903 43659178 61063624 206.3 318.6 1124 0.56369476828025 14.23574964964 3586.0389005136 17116.036247096
1454	40413583 41881 43659178 61063624 206.3 318.6 1124 -1.2415569868405 2.5402223207057 45.426315739029 388.98083438196
1453	40455464 40157 43626461 61063624 206.2 318.6 1125 15.520098512147 20.119966969609 21336.641046342 408721.8355237
1452	40495621 40195 43593746 61063624 206.1 318.6 1126 179.4410342064 2144.4371370265 1228317.2251539 1750732705.2125
1451	40535816 40199 43593746 61063624 206.1 318.6 1126 107.31942919093 382.9450459293 356877.60448447 121617574.40998
1406	40576015 39946 41709251 61068030 200.3 319.1 1189 0.57218455074816 8.9118949424827 3798.6686143231 17449.266807952
1405	40615961 44354 41709251 61068030 200.3 319.1 1189 -1.2606849565637 1.2536954462296 -0.018571831844734 343.64744611285
1404	40660315 42455 41676505 61068030 200.2 319.1 1190 19.990029110052 20.119857625791 23864.754041936 478595.41568304
1403	40702770 42494 41643857 61068030 200.1 319.1 1191 25.563133122749 2142.7175664701 1214807.4032855 1740324231.154
1402	40745264 42489 41643857 61068030 200.1 319.1 1191 28.292354508794 395.96775692952 377438.67374287 132241124.57752
1469	40787753 37738 44309800 61079367 208.3 320.6 1124 0.55298463648233 13.222580429433 3587.2804232417 17069.659167566
1468	40825491 41918 44309800 61079367 208.3 320.6 1124 -1.2253806270892 2.5788250749465 44.256262258347 392.01975971756
1467	40867409 40145 44277129 61079367 208.2 320.6 1125 15.520373105595 20.11999615866 21344.925661011 409038.93755485
1466	40907554 40186 44244435 61079367 208.1 320.6 1126 177.20127428924 2145.2692975872 1228487.5369273 1752034591.828
1465	40947740 40190 44244435 61079367 208.1 320.6 1126 107.23101213136 386.24378276085 358386.5013565 122680394.44515
1420	40987930 40032 42358120 61082831 202.3 321.1 1189 0.57058246133818 8.5462336478934 3809.1121703405 17316.697113545
1419	41027962 44350 42358120 61082831 202.3 321.1 1189 -1.2639727375936 1.1791680997936 0.14313501107971 340.55741401533
1418	41072312 42504 42325439 61082831 202.2 321.1 1190 19.990056288098 20.119979404726 23865.899456828 478641.30142321
1417	41114816 42505 42292951 61082831 202.1 321.1 1191 25.489694653843 2141.902346661 1214273.7430405 1738637301.4359
1416	41157321 42497 42292951 61082831 202.1 321.1 1191 28.202610873613 395.96523845562 375833.62460275 131307319.51174
1483	41199818 37726 44958949 61091546 210.3 322.6 1124 0.56144204867759 14.125828414529 3614.2170947295 17662.312750652
1482	41237544 41903 44958949 61091546 210.3 322.6 1124 -1.2804447952658 2.5408162953798 45.614970224421 416.84815752836
1481	41279447 40158 44926298 61091546 210.2 322.6 1125 15.521377269593 20.119970844304 21340.197912625 408859.96406431
1480	41319605 40179 44893716 61091546 210.1 322.6 1126 179.4410342064 2144.7930851452 1228551.6566313 1751416496.2203
1479	41359784 40176 44893716 61091546 210.1 322.6 1126 107.28160970332 382.94430768014 356824.962697 121591771.93723
1434	41399960 40064 43008358 61094188 204.3 323.1 1189 0.56488226995782 8.9119940541598 3786.8013771659 17074.060075002
1433	41440024 44371 43008358 61094188 204.3 323.1 1189 -1.2141198341967 1.2537980622612 0.34291468365115 328.76742327337
1432	41484395 42485 42975574 61094188 204.2 323.1 1190 19.990155455426 20.119971728281 23865.406883578 478621.48705672
1431	41526880 42507 42942799 61094188 204.1 323.1 1191 25.522487909202 2142.7175664701 1214749.1425366 1740175200.6519
1430	41569387 42500 42942799 61094188 204.1 323.1 1191 28.242685047124 395.96803291277 377452.19278173 132250055.62221
1497	41611887 37678 45607092 61100641 212.3 324.6 1124 0.55518993592283 15.068277777314 3616.5496946807 17648.895373932
1496	41649565 41876 45607092 61100641 212.3 324.6 1124 -1.2635997264646 2.5951302443398 45.200735390792 416.64506112183
1495	41691441 40135 45574542 61100641 212.2 324.6 1125 15.520248053451 20.119993833504 21343.560236958 408991.98338205
1494	41731576 40165 45541867 61100641 212.1 324.6 1126 177.20127428924 2145.1277281099 1228382.7950908 1751717164.7246
1493	41771741 40194 45541867 61100641 212.1 324.6 1126 107.24605388832 386.24449031463 358414.01193158 122694764.82781
1448	41811935 40068 43659178 61102581 206.3 325.1 1189 0.55599413845867 8.8716313760454 3772.9532216247 17242.558874066
1447	41852003 44359 43659178 61102581 206.3 325.1 1189 -1.2950532023329 1.2455975165823 0.81688190507702 334.22983043906
1446	41896362 42492 43626461 61102581 206.2 325.1 1190 19.990304647165 20.119993912049 23864.236829858 478574.61916833
1445	41938854 42508 43593746 61102581 206.1 325.1 1191 25.596561255515 2141.902346661 1214347.9895952 1738723589.6877
1444	41981362 42527 43593746 61102581 206.1 325.1 1191 28.333204518285 395.96836399408 375861.12750485 131319012.99056
1511	42023889 37707 46254748 61107132 214.3 326.6 1124 0.55478829204811 14.020723438402 3587.9471792331 16996.307081173
1510	42061596 41902 46254748 61107132 214.3 326.6 1124 -1.196696102689 2.3998734542169 44.771752163395 381.93509527135
1509	42103498 40146 46222230 61107132 214.2 326.6 1125 15.520162393241 20.119905290329 21335.074784859 408678.53043445
1508	42143644 40200 46189655 61107132 214.1 326.6 1126 179.4410342064 2144.2806092327 1228057.2378844 1750118972.8689
1507	42183844 40188 46189655 61107132 214.1 326.6 1126 107.33606026902 382.94402767862 356908.69762146 121633394.04046
1462	42224032 40103 44309800 61108490 208.3 327.1 1189 0.55450931549152 9.0373263939641 3803.9069770026 17188.857095924
1461	42264135 44365 44309800 61108490 208.3 327.1 1189 -1.2426352689275 1.2795749824028 -0.54208328376991 336.20461199313
1460	42308500 42460 44277129 61108490 208.2 327.1 1190 19.990040785805 20.119842788214 23866.213313991 478653.85294776
1459	42350960 42504 44244435 61108490 208.1 327.1 1191 25.464569606524 2142.3146825603 1214362.3251324 1738792440.2328
1458	42393464 42483 44244435 61108490 208.1 327.1 1191 28.17190744101 395.96720011166 375846.41735417 131313519.69943
1525	42435947 37697 46901629 61111499 216.3 328.6 1124 0.55883854122792 13.877306082096 3619.173889638 17579.878516469
1524	42473644 41888 46901629 61111499 216.3 328.6 1124 -1.2167185379425 2.5782092779642 45.137095396011 412.17201309004
1523	42515532 40153 46869197 61111499 216.2 328.6 1125 15.520588033341 20.119601688469 21345.602806218 409062.17695363
1522	42555685 40172 46836581 61111499 216.1 328.6 1126 177.20127428924 2145.3305746864 1228617.463742 1752339542.03
1521	42595857 40192 46836581 61111499 216.1 328.6 1126 107.22450143957 386.24472143491 358379.48390825 122678880.37829
1476	42636049 40111 44958949 61112395 210.3 329.1 1189 0.55423396696238 8.8167714153706 3800.3146860599 17230.874052016
1475	42676160 44360 44958949 61112395 210.3 329.1 1189 -1.1902953019133 1.2342548291199 0.48105058460497 335.57942041684
1474	42720520 42467 44926298 61112395 210.2 329.1 1190 19.990037105854 20.119993452672 23863.317764906 478537.74098891
1473	42762987 42490 44893716 61112395 210.1 329.1 1191 25.654643070018 2142.7175664701 1214822.8135297 1740312981.0033
1472	42805477 42512 44893716 61112395 210.1 329.1 1191 28.404181939916 395.9699471928 377467.90872134 132252918.0467
1539	42847989 37765 47549645 61114222 218.3 330.6 1124 0.54885035535334 14.554331502625 3590.9455506856 17297.700347581
1538	42885754 41881 47549645 61114222 218.3 330.6 1124 -1.2588616232155 2.5983636219986 44.614401743538 399.43867669814
1537	42927635 40165 47517001 61114222 218.2 330.6 1125 15.520281596007 20.119988768036 21344.959996357 409036.11408167
1536	42967800 40193 47484381 61114222 218.1 330.6 1126 177.20127428924 2145.268538779 1228548.3590945 1752128659.9458
1535	43007993 40195 47484381 61114222 218.1 330.6 1126 107.23109275474 386.24452721569 358389.25426243 122681176.69885
1490	43048188 40272 45607092 61114776 212.3 331.1 1189 0.56087919770435 9.0350185007949 3735.0407063062 16850.284924542
1489	43088460 44407 45607092 61114776 212.3 331.1 1189 -1.2275453297189 1.2790973835857 -0.14467244031838 317.32280516309
1488	43132867 42480 45574542 61114776 212.2 331.1 1190 19.990073183535 20.119922538721 23867.510582032 478705.8664541
1487	43175347 42485 45541867 61114776 212.1 331.1 1191 25.387124913282 2141.902346661 1214263.4624996 1738601027.0039
1486	43217832 42493 45541867 61114776 212.1 331.1 1191 28.077268100067 395.96576642995 375832.76492241 131309244.1422
1504	43260325 40182 46254748 61116101 214.3 333.1 1189 0.55822796561872 8.8794536552514 3778.0085539503 16856.301119785
1503	43300507 44353 46254748 61116101 214.3 333.1 1189 -1.2793573722476 1.2471539650112 0.31542026125827 320.4040615939
1502	43344860 42459 46222230 61116101 214.2 333.1 1190 19.990017330903 20.119900240449 23865.114239229 478609.80808606
1501	43387319 42496 46189655 61116101 214.1 333.1 1191 25.537249833893 2142.3146825603 1214365.6654136 1738762714.3807
1500	43429815 42512 46189655 61116101 214.1 333.1 1191 28.260724486178 395.96728142498 375871.61724429 131323798.50746
1518	43472327 39895 46901629 61116754 216.3 335.1 1189 0.55025004190578 9.0487842573124 3790.5894531253 17572.555615514
1517	43512222 44320 46901629 61116754 216.3 335.1 1189 -1.2264379776548 1.2819059897447 -0.39081339188851 349.53054525673
1516	43556542 42473 46869197 61116754 216.2 335.1 1190 19.990217540539 20.119993793217 23862.929665526 478522.1653242
1515	43599015 42516 46836581 61116754 216.1 335.1 1191 25.674915247338 2142.3146825603 1214404.8802049 1738810738.0022
1514	43641531 42494 46836581 61116754 216.1 335.1 1191 28.428955044704 395.96948821781 375889.21322847 131330247.16026
1532	43684025 40011 47549645 61116975 218.3 337.1 1189 0.5538651514312 8.8891174775683 3809.9190074143 17362.945386935
1531	43724036 44361 47549645 61116975 218.3 337.1 1189 -1.283371583675 1.2490767344367 0.62230582162737 343.16344706076
1530	43768397 42459 47517001 61116975 218.2 337.1 1190 19.990005242748 20.119844265443 23865.175807521 478612.30290172
1529	43810856 42481 47484381 61116975 218.1 337.1 1191 25.536316861906 2142.3146825603 1214358.1870785 1738741812.629
1528	43853337 42485 47484381 61116975 218.1 337.1 1191 28.25958437121 395.96844755581 375875.7850436 131325929.2722
