version 2
run General-0-20170306-14:11:30-26893
attr configname General
attr datetime 20170306-14:11:30
attr experiment General
attr inifile omnetpp.ini
attr iterationvars ""
attr iterationvars2 $repetition=0
attr measurement ""
attr network com.liborio.cooperativepositioning.LocScenario
attr processid 26893
attr repetition 0
attr replication #0
attr resultdir results
attr runnumber 0
attr seedset 0
param **.coreDebug false
param **.debug false
param *.**.nic.mac1609_4.bitrate 18Mbps
param *.**.nic.mac1609_4.txPower 20mW
param *.**.nic.mac1609_4.useServiceChannel false
param *.**.nic.phy80211p.analogueModels "xmldoc(\"config_splm.xml\")"
param *.**.nic.phy80211p.decider "xmldoc(\"config_splm.xml\")"
param *.**.nic.phy80211p.sensitivity -89dBm
param *.**.nic.phy80211p.thermalNoise -110dBm
param *.**.nic.phy80211p.usePropagationDelay true
param *.**.nic.phy80211p.useThermalNoise true
param *.annotations.draw false
param *.connectionManager.alpha 2.0
param *.connectionManager.carrierFrequency "5.890e9 Hz"
param *.connectionManager.pMax 20mW
param *.connectionManager.sat -89dBm
param *.connectionManager.sendDirect true
param *.manager.autoShutdown true
param *.manager.host "\"localhost\""
param *.manager.launchConfig "xmldoc(\"dmat.launchd.xml\")"
param *.manager.margin 25
param *.manager.moduleDisplayString "\"\""
param *.manager.moduleName "\"node\""
param *.manager.moduleType "\"org.car2x.veins.nodes.Car\""
param *.manager.port 9999
param *.manager.updateInterval 0.1s
param *.node[*].appl.beaconInterval 0.1s
param *.node[*].appl.beaconPriority 3
param *.node[*].appl.dataOnSch false
param *.node[*].appl.dataPriority 2
param *.node[*].appl.debug false
param *.node[*].appl.headerLength "256 bit"
param *.node[*].appl.maxOffset 0.005s
param *.node[*].appl.sendBeacons true
param *.node[*].appl.sendData true
param *.node[*].applType "\"LocAppCom\""
param *.node[*].mobilityType "\"TraCIMobility\""
param *.node[*].mobilityType.debug true
param *.node[*].veinsmobility.x 0
param *.node[*].veinsmobility.y 0
param *.node[*].veinsmobility.z 1.895
param *.node[*].veinsmobilityType "\"org.car2x.veins.modules.mobility.traci.TraCIMobility\""
param *.node[*].veinsmobilityType.debug true
param *.playgroundSizeX 10000m
param *.playgroundSizeY 10000m
param *.playgroundSizeZ 50m
param *.world.use2D false
param *.world.useTorus false

scalar LocScenario.node[1].nic.phy80211p 	busyTime 	0.016368170515103
scalar LocScenario.node[1].nic.mac1609_4 	ReceivedUnicastPackets 	0
scalar LocScenario.node[1].nic.mac1609_4 	ReceivedBroadcasts 	23864
scalar LocScenario.node[1].nic.mac1609_4 	SentPackets 	1126
scalar LocScenario.node[1].nic.mac1609_4 	SNIRLostPackets 	1734
scalar LocScenario.node[1].nic.mac1609_4 	RXTXLostPackets 	0
scalar LocScenario.node[1].nic.mac1609_4 	TotalLostPackets 	1734
scalar LocScenario.node[1].nic.mac1609_4 	DroppedPacketsInMac 	0
scalar LocScenario.node[1].nic.mac1609_4 	TooLittleTime 	0
scalar LocScenario.node[1].nic.mac1609_4 	TimesIntoBackoff 	1126
scalar LocScenario.node[1].nic.mac1609_4 	SlotsBackoff 	1654
scalar LocScenario.node[1].nic.mac1609_4 	NumInternalContention 	0
scalar LocScenario.node[1].nic.mac1609_4 	totalBusyTime 	1.861606083351
scalar LocScenario.node[1].veinsmobility 	startTime 	0.1
scalar LocScenario.node[1].veinsmobility 	totalTime 	112.5
scalar LocScenario.node[1].veinsmobility 	stopTime 	112.7
scalar LocScenario.node[1].veinsmobility 	minSpeed 	15.521054257208
scalar LocScenario.node[1].veinsmobility 	maxSpeed 	20.119973095939
scalar LocScenario.node[1].veinsmobility 	totalDistance 	2136.5365593996
scalar LocScenario.node[1].veinsmobility 	totalCO2Emission 	359.20507407497
scalar LocScenario.node[3].nic.phy80211p 	busyTime 	0.01723907637656
scalar LocScenario.node[3].nic.mac1609_4 	ReceivedUnicastPackets 	0
scalar LocScenario.node[3].nic.mac1609_4 	ReceivedBroadcasts 	25237
scalar LocScenario.node[3].nic.mac1609_4 	SentPackets 	1126
scalar LocScenario.node[3].nic.mac1609_4 	SNIRLostPackets 	1723
scalar LocScenario.node[3].nic.mac1609_4 	RXTXLostPackets 	0
scalar LocScenario.node[3].nic.mac1609_4 	TotalLostPackets 	1723
scalar LocScenario.node[3].nic.mac1609_4 	DroppedPacketsInMac 	0
scalar LocScenario.node[3].nic.mac1609_4 	TooLittleTime 	0
scalar LocScenario.node[3].nic.mac1609_4 	TimesIntoBackoff 	1126
scalar LocScenario.node[3].nic.mac1609_4 	SlotsBackoff 	1641
scalar LocScenario.node[3].nic.mac1609_4 	NumInternalContention 	0
scalar LocScenario.node[3].nic.mac1609_4 	totalBusyTime 	1.960318
scalar LocScenario.node[3].veinsmobility 	startTime 	2.1
scalar LocScenario.node[3].veinsmobility 	totalTime 	112.5
scalar LocScenario.node[3].veinsmobility 	stopTime 	114.7
scalar LocScenario.node[3].veinsmobility 	minSpeed 	15.520019001605
scalar LocScenario.node[3].veinsmobility 	maxSpeed 	20.119905529385
scalar LocScenario.node[3].veinsmobility 	totalDistance 	2136.8295004164
scalar LocScenario.node[3].veinsmobility 	totalCO2Emission 	360.9802695332
scalar LocScenario.node[5].nic.phy80211p 	busyTime 	0.018112539964482
scalar LocScenario.node[5].nic.mac1609_4 	ReceivedUnicastPackets 	0
scalar LocScenario.node[5].nic.mac1609_4 	ReceivedBroadcasts 	27175
scalar LocScenario.node[5].nic.mac1609_4 	SentPackets 	1126
scalar LocScenario.node[5].nic.mac1609_4 	SNIRLostPackets 	1151
scalar LocScenario.node[5].nic.mac1609_4 	RXTXLostPackets 	0
scalar LocScenario.node[5].nic.mac1609_4 	TotalLostPackets 	1151
scalar LocScenario.node[5].nic.mac1609_4 	DroppedPacketsInMac 	0
scalar LocScenario.node[5].nic.mac1609_4 	TooLittleTime 	0
scalar LocScenario.node[5].nic.mac1609_4 	TimesIntoBackoff 	1126
scalar LocScenario.node[5].nic.mac1609_4 	SlotsBackoff 	1669
scalar LocScenario.node[5].nic.mac1609_4 	NumInternalContention 	0
scalar LocScenario.node[5].nic.mac1609_4 	totalBusyTime 	2.058886
scalar LocScenario.node[5].veinsmobility 	startTime 	4.1
scalar LocScenario.node[5].veinsmobility 	totalTime 	112.5
scalar LocScenario.node[5].veinsmobility 	stopTime 	116.7
scalar LocScenario.node[5].veinsmobility 	minSpeed 	15.520333303681
scalar LocScenario.node[5].veinsmobility 	maxSpeed 	20.119882597332
scalar LocScenario.node[5].veinsmobility 	totalDistance 	2131.9798851559
scalar LocScenario.node[5].veinsmobility 	totalCO2Emission 	361.45107836524
scalar LocScenario.node[7].nic.phy80211p 	busyTime 	0.018547992895209
scalar LocScenario.node[7].nic.mac1609_4 	ReceivedUnicastPackets 	0
scalar LocScenario.node[7].nic.mac1609_4 	ReceivedBroadcasts 	28556
scalar LocScenario.node[7].nic.mac1609_4 	SentPackets 	1126
scalar LocScenario.node[7].nic.mac1609_4 	SNIRLostPackets 	451
scalar LocScenario.node[7].nic.mac1609_4 	RXTXLostPackets 	640
scalar LocScenario.node[7].nic.mac1609_4 	TotalLostPackets 	1091
scalar LocScenario.node[7].nic.mac1609_4 	DroppedPacketsInMac 	0
scalar LocScenario.node[7].nic.mac1609_4 	TooLittleTime 	0
scalar LocScenario.node[7].nic.mac1609_4 	TimesIntoBackoff 	1126
scalar LocScenario.node[7].nic.mac1609_4 	SlotsBackoff 	1699
scalar LocScenario.node[7].nic.mac1609_4 	NumInternalContention 	0
scalar LocScenario.node[7].nic.mac1609_4 	totalBusyTime 	2.154358
scalar LocScenario.node[7].veinsmobility 	startTime 	6.1
scalar LocScenario.node[7].veinsmobility 	totalTime 	112.5
scalar LocScenario.node[7].veinsmobility 	stopTime 	118.7
scalar LocScenario.node[7].veinsmobility 	minSpeed 	15.520909829286
scalar LocScenario.node[7].veinsmobility 	maxSpeed 	20.119828387918
scalar LocScenario.node[7].veinsmobility 	totalDistance 	2132.0939036511
scalar LocScenario.node[7].veinsmobility 	totalCO2Emission 	358.94374239696
scalar LocScenario.node[0].nic.phy80211p 	busyTime 	0.016653702770787
scalar LocScenario.node[0].nic.mac1609_4 	ReceivedUnicastPackets 	0
scalar LocScenario.node[0].nic.mac1609_4 	ReceivedBroadcasts 	26884
scalar LocScenario.node[0].nic.mac1609_4 	SentPackets 	1191
scalar LocScenario.node[0].nic.mac1609_4 	SNIRLostPackets 	664
scalar LocScenario.node[0].nic.mac1609_4 	RXTXLostPackets 	0
scalar LocScenario.node[0].nic.mac1609_4 	TotalLostPackets 	664
scalar LocScenario.node[0].nic.mac1609_4 	DroppedPacketsInMac 	0
scalar LocScenario.node[0].nic.mac1609_4 	TooLittleTime 	0
scalar LocScenario.node[0].nic.mac1609_4 	TimesIntoBackoff 	1191
scalar LocScenario.node[0].nic.mac1609_4 	SlotsBackoff 	1857
scalar LocScenario.node[0].nic.mac1609_4 	NumInternalContention 	0
scalar LocScenario.node[0].nic.mac1609_4 	totalBusyTime 	2.044695
scalar LocScenario.node[0].veinsmobility 	startTime 	0.1
scalar LocScenario.node[0].veinsmobility 	totalTime 	119
scalar LocScenario.node[0].veinsmobility 	stopTime 	119.2
scalar LocScenario.node[0].veinsmobility 	minSpeed 	19.99002579368
scalar LocScenario.node[0].veinsmobility 	maxSpeed 	20.119906795102
scalar LocScenario.node[0].veinsmobility 	totalDistance 	2386.7771063262
scalar LocScenario.node[0].veinsmobility 	totalCO2Emission 	377.50818542376
scalar LocScenario.node[9].nic.phy80211p 	busyTime 	0.019780817051512
scalar LocScenario.node[9].nic.mac1609_4 	ReceivedUnicastPackets 	0
scalar LocScenario.node[9].nic.mac1609_4 	ReceivedBroadcasts 	29523
scalar LocScenario.node[9].nic.mac1609_4 	SentPackets 	1126
scalar LocScenario.node[9].nic.mac1609_4 	SNIRLostPackets 	1412
scalar LocScenario.node[9].nic.mac1609_4 	RXTXLostPackets 	0
scalar LocScenario.node[9].nic.mac1609_4 	TotalLostPackets 	1412
scalar LocScenario.node[9].nic.mac1609_4 	DroppedPacketsInMac 	0
scalar LocScenario.node[9].nic.mac1609_4 	TooLittleTime 	0
scalar LocScenario.node[9].nic.mac1609_4 	TimesIntoBackoff 	1126
scalar LocScenario.node[9].nic.mac1609_4 	SlotsBackoff 	1682
scalar LocScenario.node[9].nic.mac1609_4 	NumInternalContention 	0
scalar LocScenario.node[9].nic.mac1609_4 	totalBusyTime 	2.247742100549
scalar LocScenario.node[9].veinsmobility 	startTime 	8.1
scalar LocScenario.node[9].veinsmobility 	totalTime 	112.5
scalar LocScenario.node[9].veinsmobility 	stopTime 	120.7
scalar LocScenario.node[9].veinsmobility 	minSpeed 	15.520234135869
scalar LocScenario.node[9].veinsmobility 	maxSpeed 	20.119948902135
scalar LocScenario.node[9].veinsmobility 	totalDistance 	2132.3890465335
scalar LocScenario.node[9].veinsmobility 	totalCO2Emission 	358.23099619561
scalar LocScenario.node[2].nic.phy80211p 	busyTime 	0.01751576826197
scalar LocScenario.node[2].nic.mac1609_4 	ReceivedUnicastPackets 	0
scalar LocScenario.node[2].nic.mac1609_4 	ReceivedBroadcasts 	28335
scalar LocScenario.node[2].nic.mac1609_4 	SentPackets 	1191
scalar LocScenario.node[2].nic.mac1609_4 	SNIRLostPackets 	639
scalar LocScenario.node[2].nic.mac1609_4 	RXTXLostPackets 	0
scalar LocScenario.node[2].nic.mac1609_4 	TotalLostPackets 	639
scalar LocScenario.node[2].nic.mac1609_4 	DroppedPacketsInMac 	0
scalar LocScenario.node[2].nic.mac1609_4 	TooLittleTime 	0
scalar LocScenario.node[2].nic.mac1609_4 	TimesIntoBackoff 	1191
scalar LocScenario.node[2].nic.mac1609_4 	SlotsBackoff 	1728
scalar LocScenario.node[2].nic.mac1609_4 	NumInternalContention 	0
scalar LocScenario.node[2].nic.mac1609_4 	totalBusyTime 	2.148735
scalar LocScenario.node[2].veinsmobility 	startTime 	2.1
scalar LocScenario.node[2].veinsmobility 	totalTime 	119
scalar LocScenario.node[2].veinsmobility 	stopTime 	121.2
scalar LocScenario.node[2].veinsmobility 	minSpeed 	19.990127417375
scalar LocScenario.node[2].veinsmobility 	maxSpeed 	20.119992804453
scalar LocScenario.node[2].veinsmobility 	totalDistance 	2386.7647032658
scalar LocScenario.node[2].veinsmobility 	totalCO2Emission 	382.19888137802
scalar LocScenario.node[11].nic.phy80211p 	busyTime 	0.020609520426289
scalar LocScenario.node[11].nic.mac1609_4 	ReceivedUnicastPackets 	0
scalar LocScenario.node[11].nic.mac1609_4 	ReceivedBroadcasts 	30537
scalar LocScenario.node[11].nic.mac1609_4 	SentPackets 	1126
scalar LocScenario.node[11].nic.mac1609_4 	SNIRLostPackets 	1694
scalar LocScenario.node[11].nic.mac1609_4 	RXTXLostPackets 	0
scalar LocScenario.node[11].nic.mac1609_4 	TotalLostPackets 	1694
scalar LocScenario.node[11].nic.mac1609_4 	DroppedPacketsInMac 	0
scalar LocScenario.node[11].nic.mac1609_4 	TooLittleTime 	0
scalar LocScenario.node[11].nic.mac1609_4 	TimesIntoBackoff 	1126
scalar LocScenario.node[11].nic.mac1609_4 	SlotsBackoff 	1641
scalar LocScenario.node[11].nic.mac1609_4 	NumInternalContention 	0
scalar LocScenario.node[11].nic.mac1609_4 	totalBusyTime 	2.341558
scalar LocScenario.node[11].veinsmobility 	startTime 	10.1
scalar LocScenario.node[11].veinsmobility 	totalTime 	112.5
scalar LocScenario.node[11].veinsmobility 	stopTime 	122.7
scalar LocScenario.node[11].veinsmobility 	minSpeed 	15.521030399923
scalar LocScenario.node[11].veinsmobility 	maxSpeed 	20.119776994304
scalar LocScenario.node[11].veinsmobility 	totalDistance 	2131.953346576
scalar LocScenario.node[11].veinsmobility 	totalCO2Emission 	357.5188164891
scalar LocScenario.node[4].nic.phy80211p 	busyTime 	0.018372997481111
scalar LocScenario.node[4].nic.mac1609_4 	ReceivedUnicastPackets 	0
scalar LocScenario.node[4].nic.mac1609_4 	ReceivedBroadcasts 	29798
scalar LocScenario.node[4].nic.mac1609_4 	SentPackets 	1191
scalar LocScenario.node[4].nic.mac1609_4 	SNIRLostPackets 	594
scalar LocScenario.node[4].nic.mac1609_4 	RXTXLostPackets 	0
scalar LocScenario.node[4].nic.mac1609_4 	TotalLostPackets 	594
scalar LocScenario.node[4].nic.mac1609_4 	DroppedPacketsInMac 	0
scalar LocScenario.node[4].nic.mac1609_4 	TooLittleTime 	0
scalar LocScenario.node[4].nic.mac1609_4 	TimesIntoBackoff 	1191
scalar LocScenario.node[4].nic.mac1609_4 	SlotsBackoff 	1834
scalar LocScenario.node[4].nic.mac1609_4 	NumInternalContention 	0
scalar LocScenario.node[4].nic.mac1609_4 	totalBusyTime 	2.252415
scalar LocScenario.node[4].veinsmobility 	startTime 	4.1
scalar LocScenario.node[4].veinsmobility 	totalTime 	119
scalar LocScenario.node[4].veinsmobility 	stopTime 	123.2
scalar LocScenario.node[4].veinsmobility 	minSpeed 	19.990213865612
scalar LocScenario.node[4].veinsmobility 	maxSpeed 	20.11956574209
scalar LocScenario.node[4].veinsmobility 	totalDistance 	2388.4527745362
scalar LocScenario.node[4].veinsmobility 	totalCO2Emission 	379.94966876541
scalar LocScenario.node[13].nic.phy80211p 	busyTime 	0.021427353463587
scalar LocScenario.node[13].nic.mac1609_4 	ReceivedUnicastPackets 	0
scalar LocScenario.node[13].nic.mac1609_4 	ReceivedBroadcasts 	31822
scalar LocScenario.node[13].nic.mac1609_4 	SentPackets 	1126
scalar LocScenario.node[13].nic.mac1609_4 	SNIRLostPackets 	1688
scalar LocScenario.node[13].nic.mac1609_4 	RXTXLostPackets 	0
scalar LocScenario.node[13].nic.mac1609_4 	TotalLostPackets 	1688
scalar LocScenario.node[13].nic.mac1609_4 	DroppedPacketsInMac 	0
scalar LocScenario.node[13].nic.mac1609_4 	TooLittleTime 	0
scalar LocScenario.node[13].nic.mac1609_4 	TimesIntoBackoff 	1381
scalar LocScenario.node[13].nic.mac1609_4 	SlotsBackoff 	2031
scalar LocScenario.node[13].nic.mac1609_4 	NumInternalContention 	0
scalar LocScenario.node[13].nic.mac1609_4 	totalBusyTime 	2.43415
scalar LocScenario.node[13].veinsmobility 	startTime 	12.1
scalar LocScenario.node[13].veinsmobility 	totalTime 	112.5
scalar LocScenario.node[13].veinsmobility 	stopTime 	124.7
scalar LocScenario.node[13].veinsmobility 	minSpeed 	15.520006634651
scalar LocScenario.node[13].veinsmobility 	maxSpeed 	20.119814914761
scalar LocScenario.node[13].veinsmobility 	totalDistance 	2131.8392805921
scalar LocScenario.node[13].veinsmobility 	totalCO2Emission 	361.48409315177
scalar LocScenario.node[6].nic.phy80211p 	busyTime 	0.019211486146097
scalar LocScenario.node[6].nic.mac1609_4 	ReceivedUnicastPackets 	0
scalar LocScenario.node[6].nic.mac1609_4 	ReceivedBroadcasts 	31244
scalar LocScenario.node[6].nic.mac1609_4 	SentPackets 	1191
scalar LocScenario.node[6].nic.mac1609_4 	SNIRLostPackets 	535
scalar LocScenario.node[6].nic.mac1609_4 	RXTXLostPackets 	0
scalar LocScenario.node[6].nic.mac1609_4 	TotalLostPackets 	535
scalar LocScenario.node[6].nic.mac1609_4 	DroppedPacketsInMac 	0
scalar LocScenario.node[6].nic.mac1609_4 	TooLittleTime 	0
scalar LocScenario.node[6].nic.mac1609_4 	TimesIntoBackoff 	1191
scalar LocScenario.node[6].nic.mac1609_4 	SlotsBackoff 	1734
scalar LocScenario.node[6].nic.mac1609_4 	NumInternalContention 	0
scalar LocScenario.node[6].nic.mac1609_4 	totalBusyTime 	2.354367637248
scalar LocScenario.node[6].veinsmobility 	startTime 	6.1
scalar LocScenario.node[6].veinsmobility 	totalTime 	119
scalar LocScenario.node[6].veinsmobility 	stopTime 	125.2
scalar LocScenario.node[6].veinsmobility 	minSpeed 	19.990120535041
scalar LocScenario.node[6].veinsmobility 	maxSpeed 	20.119960150202
scalar LocScenario.node[6].veinsmobility 	totalDistance 	2388.2825918782
scalar LocScenario.node[6].veinsmobility 	totalCO2Emission 	377.66637434151
scalar LocScenario.node[15].nic.phy80211p 	busyTime 	0.022209378330371
scalar LocScenario.node[15].nic.mac1609_4 	ReceivedUnicastPackets 	0
scalar LocScenario.node[15].nic.mac1609_4 	ReceivedBroadcasts 	33018
scalar LocScenario.node[15].nic.mac1609_4 	SentPackets 	1126
scalar LocScenario.node[15].nic.mac1609_4 	SNIRLostPackets 	1715
scalar LocScenario.node[15].nic.mac1609_4 	RXTXLostPackets 	0
scalar LocScenario.node[15].nic.mac1609_4 	TotalLostPackets 	1715
scalar LocScenario.node[15].nic.mac1609_4 	DroppedPacketsInMac 	0
scalar LocScenario.node[15].nic.mac1609_4 	TooLittleTime 	0
scalar LocScenario.node[15].nic.mac1609_4 	TimesIntoBackoff 	1126
scalar LocScenario.node[15].nic.mac1609_4 	SlotsBackoff 	1648
scalar LocScenario.node[15].nic.mac1609_4 	NumInternalContention 	0
scalar LocScenario.node[15].nic.mac1609_4 	totalBusyTime 	2.521198
scalar LocScenario.node[15].veinsmobility 	startTime 	14.1
scalar LocScenario.node[15].veinsmobility 	totalTime 	112.5
scalar LocScenario.node[15].veinsmobility 	stopTime 	126.7
scalar LocScenario.node[15].veinsmobility 	minSpeed 	15.52000895103
scalar LocScenario.node[15].veinsmobility 	maxSpeed 	20.119695144894
scalar LocScenario.node[15].veinsmobility 	totalDistance 	2132.0381399371
scalar LocScenario.node[15].veinsmobility 	totalCO2Emission 	357.00110356293
scalar LocScenario.node[8].nic.phy80211p 	busyTime 	0.020033652392947
scalar LocScenario.node[8].nic.mac1609_4 	ReceivedUnicastPackets 	0
scalar LocScenario.node[8].nic.mac1609_4 	ReceivedBroadcasts 	32639
scalar LocScenario.node[8].nic.mac1609_4 	SentPackets 	1191
scalar LocScenario.node[8].nic.mac1609_4 	SNIRLostPackets 	500
scalar LocScenario.node[8].nic.mac1609_4 	RXTXLostPackets 	0
scalar LocScenario.node[8].nic.mac1609_4 	TotalLostPackets 	500
scalar LocScenario.node[8].nic.mac1609_4 	DroppedPacketsInMac 	0
scalar LocScenario.node[8].nic.mac1609_4 	TooLittleTime 	0
scalar LocScenario.node[8].nic.mac1609_4 	TimesIntoBackoff 	1191
scalar LocScenario.node[8].nic.mac1609_4 	SlotsBackoff 	1830
scalar LocScenario.node[8].nic.mac1609_4 	NumInternalContention 	0
scalar LocScenario.node[8].nic.mac1609_4 	totalBusyTime 	2.453656145783
scalar LocScenario.node[8].veinsmobility 	startTime 	8.1
scalar LocScenario.node[8].veinsmobility 	totalTime 	119
scalar LocScenario.node[8].veinsmobility 	stopTime 	127.2
scalar LocScenario.node[8].veinsmobility 	minSpeed 	19.990059784716
scalar LocScenario.node[8].veinsmobility 	maxSpeed 	20.119889378147
scalar LocScenario.node[8].veinsmobility 	totalDistance 	2388.513322842
scalar LocScenario.node[8].veinsmobility 	totalCO2Emission 	379.98963344305
scalar LocScenario.node[17].nic.phy80211p 	busyTime 	0.022993960923619
scalar LocScenario.node[17].nic.mac1609_4 	ReceivedUnicastPackets 	0
scalar LocScenario.node[17].nic.mac1609_4 	ReceivedBroadcasts 	34236
scalar LocScenario.node[17].nic.mac1609_4 	SentPackets 	1126
scalar LocScenario.node[17].nic.mac1609_4 	SNIRLostPackets 	1724
scalar LocScenario.node[17].nic.mac1609_4 	RXTXLostPackets 	0
scalar LocScenario.node[17].nic.mac1609_4 	TotalLostPackets 	1724
scalar LocScenario.node[17].nic.mac1609_4 	DroppedPacketsInMac 	0
scalar LocScenario.node[17].nic.mac1609_4 	TooLittleTime 	0
scalar LocScenario.node[17].nic.mac1609_4 	TimesIntoBackoff 	1126
scalar LocScenario.node[17].nic.mac1609_4 	SlotsBackoff 	1703
scalar LocScenario.node[17].nic.mac1609_4 	NumInternalContention 	0
scalar LocScenario.node[17].nic.mac1609_4 	totalBusyTime 	2.609182
scalar LocScenario.node[17].veinsmobility 	startTime 	16.1
scalar LocScenario.node[17].veinsmobility 	totalTime 	112.5
scalar LocScenario.node[17].veinsmobility 	stopTime 	128.7
scalar LocScenario.node[17].veinsmobility 	minSpeed 	15.520013352782
scalar LocScenario.node[17].veinsmobility 	maxSpeed 	20.119782465363
scalar LocScenario.node[17].veinsmobility 	totalDistance 	2131.9045487602
scalar LocScenario.node[17].veinsmobility 	totalCO2Emission 	358.75275804881
scalar LocScenario.node[10].nic.phy80211p 	busyTime 	0.020834055415615
scalar LocScenario.node[10].nic.mac1609_4 	ReceivedUnicastPackets 	0
scalar LocScenario.node[10].nic.mac1609_4 	ReceivedBroadcasts 	34011
scalar LocScenario.node[10].nic.mac1609_4 	SentPackets 	1191
scalar LocScenario.node[10].nic.mac1609_4 	SNIRLostPackets 	452
scalar LocScenario.node[10].nic.mac1609_4 	RXTXLostPackets 	0
scalar LocScenario.node[10].nic.mac1609_4 	TotalLostPackets 	452
scalar LocScenario.node[10].nic.mac1609_4 	DroppedPacketsInMac 	0
scalar LocScenario.node[10].nic.mac1609_4 	TooLittleTime 	0
scalar LocScenario.node[10].nic.mac1609_4 	TimesIntoBackoff 	1191
scalar LocScenario.node[10].nic.mac1609_4 	SlotsBackoff 	1717
scalar LocScenario.node[10].nic.mac1609_4 	NumInternalContention 	0
scalar LocScenario.node[10].nic.mac1609_4 	totalBusyTime 	2.550495
scalar LocScenario.node[10].veinsmobility 	startTime 	10.1
scalar LocScenario.node[10].veinsmobility 	totalTime 	119
scalar LocScenario.node[10].veinsmobility 	stopTime 	129.2
scalar LocScenario.node[10].veinsmobility 	minSpeed 	19.990093861592
scalar LocScenario.node[10].veinsmobility 	maxSpeed 	20.119992125905
scalar LocScenario.node[10].veinsmobility 	totalDistance 	2387.0712626669
scalar LocScenario.node[10].veinsmobility 	totalCO2Emission 	382.5090529548
scalar LocScenario.node[19].nic.phy80211p 	busyTime 	0.02376255772646
scalar LocScenario.node[19].nic.mac1609_4 	ReceivedUnicastPackets 	0
scalar LocScenario.node[19].nic.mac1609_4 	ReceivedBroadcasts 	35673
scalar LocScenario.node[19].nic.mac1609_4 	SentPackets 	1126
scalar LocScenario.node[19].nic.mac1609_4 	SNIRLostPackets 	1489
scalar LocScenario.node[19].nic.mac1609_4 	RXTXLostPackets 	0
scalar LocScenario.node[19].nic.mac1609_4 	TotalLostPackets 	1489
scalar LocScenario.node[19].nic.mac1609_4 	DroppedPacketsInMac 	0
scalar LocScenario.node[19].nic.mac1609_4 	TooLittleTime 	0
scalar LocScenario.node[19].nic.mac1609_4 	TimesIntoBackoff 	1126
scalar LocScenario.node[19].nic.mac1609_4 	SlotsBackoff 	1723
scalar LocScenario.node[19].nic.mac1609_4 	NumInternalContention 	0
scalar LocScenario.node[19].nic.mac1609_4 	totalBusyTime 	2.686753590943
scalar LocScenario.node[19].veinsmobility 	startTime 	18.1
scalar LocScenario.node[19].veinsmobility 	totalTime 	112.5
scalar LocScenario.node[19].veinsmobility 	stopTime 	130.7
scalar LocScenario.node[19].veinsmobility 	minSpeed 	15.520005640106
scalar LocScenario.node[19].veinsmobility 	maxSpeed 	20.119980451211
scalar LocScenario.node[19].veinsmobility 	totalDistance 	2136.1624630519
scalar LocScenario.node[19].veinsmobility 	totalCO2Emission 	360.80678755492
scalar LocScenario.node[12].nic.phy80211p 	busyTime 	0.021647153652389
scalar LocScenario.node[12].nic.mac1609_4 	ReceivedUnicastPackets 	0
scalar LocScenario.node[12].nic.mac1609_4 	ReceivedBroadcasts 	35273
scalar LocScenario.node[12].nic.mac1609_4 	SentPackets 	1191
scalar LocScenario.node[12].nic.mac1609_4 	SNIRLostPackets 	535
scalar LocScenario.node[12].nic.mac1609_4 	RXTXLostPackets 	0
scalar LocScenario.node[12].nic.mac1609_4 	TotalLostPackets 	535
scalar LocScenario.node[12].nic.mac1609_4 	DroppedPacketsInMac 	0
scalar LocScenario.node[12].nic.mac1609_4 	TooLittleTime 	0
scalar LocScenario.node[12].nic.mac1609_4 	TimesIntoBackoff 	1191
scalar LocScenario.node[12].nic.mac1609_4 	SlotsBackoff 	1785
scalar LocScenario.node[12].nic.mac1609_4 	NumInternalContention 	0
scalar LocScenario.node[12].nic.mac1609_4 	totalBusyTime 	2.643807
scalar LocScenario.node[12].veinsmobility 	startTime 	12.1
scalar LocScenario.node[12].veinsmobility 	totalTime 	119
scalar LocScenario.node[12].veinsmobility 	stopTime 	131.2
scalar LocScenario.node[12].veinsmobility 	minSpeed 	19.990004156339
scalar LocScenario.node[12].veinsmobility 	maxSpeed 	20.119845001712
scalar LocScenario.node[12].veinsmobility 	totalDistance 	2390.0739061926
scalar LocScenario.node[12].veinsmobility 	totalCO2Emission 	377.54335633899
scalar LocScenario.node[21].nic.phy80211p 	busyTime 	0.024084831261095
scalar LocScenario.node[21].nic.mac1609_4 	ReceivedUnicastPackets 	0
scalar LocScenario.node[21].nic.mac1609_4 	ReceivedBroadcasts 	37004
scalar LocScenario.node[21].nic.mac1609_4 	SentPackets 	1126
scalar LocScenario.node[21].nic.mac1609_4 	SNIRLostPackets 	662
scalar LocScenario.node[21].nic.mac1609_4 	RXTXLostPackets 	654
scalar LocScenario.node[21].nic.mac1609_4 	TotalLostPackets 	1316
scalar LocScenario.node[21].nic.mac1609_4 	DroppedPacketsInMac 	0
scalar LocScenario.node[21].nic.mac1609_4 	TooLittleTime 	0
scalar LocScenario.node[21].nic.mac1609_4 	TimesIntoBackoff 	1233
scalar LocScenario.node[21].nic.mac1609_4 	SlotsBackoff 	1891
scalar LocScenario.node[21].nic.mac1609_4 	NumInternalContention 	0
scalar LocScenario.node[21].nic.mac1609_4 	totalBusyTime 	2.770318687628
scalar LocScenario.node[21].veinsmobility 	startTime 	20.1
scalar LocScenario.node[21].veinsmobility 	totalTime 	112.5
scalar LocScenario.node[21].veinsmobility 	stopTime 	132.7
scalar LocScenario.node[21].veinsmobility 	minSpeed 	15.520510734753
scalar LocScenario.node[21].veinsmobility 	maxSpeed 	20.119997396106
scalar LocScenario.node[21].veinsmobility 	totalDistance 	2132.4140921781
scalar LocScenario.node[21].veinsmobility 	totalCO2Emission 	359.16303039939
scalar LocScenario.node[14].nic.phy80211p 	busyTime 	0.022417934508811
scalar LocScenario.node[14].nic.mac1609_4 	ReceivedUnicastPackets 	0
scalar LocScenario.node[14].nic.mac1609_4 	ReceivedBroadcasts 	36467
scalar LocScenario.node[14].nic.mac1609_4 	SentPackets 	1191
scalar LocScenario.node[14].nic.mac1609_4 	SNIRLostPackets 	616
scalar LocScenario.node[14].nic.mac1609_4 	RXTXLostPackets 	0
scalar LocScenario.node[14].nic.mac1609_4 	TotalLostPackets 	616
scalar LocScenario.node[14].nic.mac1609_4 	DroppedPacketsInMac 	0
scalar LocScenario.node[14].nic.mac1609_4 	TooLittleTime 	0
scalar LocScenario.node[14].nic.mac1609_4 	TimesIntoBackoff 	1191
scalar LocScenario.node[14].nic.mac1609_4 	SlotsBackoff 	1733
scalar LocScenario.node[14].nic.mac1609_4 	NumInternalContention 	0
scalar LocScenario.node[14].nic.mac1609_4 	totalBusyTime 	2.731575
scalar LocScenario.node[14].veinsmobility 	startTime 	14.1
scalar LocScenario.node[14].veinsmobility 	totalTime 	119
scalar LocScenario.node[14].veinsmobility 	stopTime 	133.2
scalar LocScenario.node[14].veinsmobility 	minSpeed 	19.990024885156
scalar LocScenario.node[14].veinsmobility 	maxSpeed 	20.11997836269
scalar LocScenario.node[14].veinsmobility 	totalDistance 	2387.2925075926
scalar LocScenario.node[14].veinsmobility 	totalCO2Emission 	379.7498941839
scalar LocScenario.node[23].nic.phy80211p 	busyTime 	0.025249875666066
scalar LocScenario.node[23].nic.mac1609_4 	ReceivedUnicastPackets 	0
scalar LocScenario.node[23].nic.mac1609_4 	ReceivedBroadcasts 	38172
scalar LocScenario.node[23].nic.mac1609_4 	SentPackets 	1126
scalar LocScenario.node[23].nic.mac1609_4 	SNIRLostPackets 	1316
scalar LocScenario.node[23].nic.mac1609_4 	RXTXLostPackets 	0
scalar LocScenario.node[23].nic.mac1609_4 	TotalLostPackets 	1316
scalar LocScenario.node[23].nic.mac1609_4 	DroppedPacketsInMac 	0
scalar LocScenario.node[23].nic.mac1609_4 	TooLittleTime 	0
scalar LocScenario.node[23].nic.mac1609_4 	TimesIntoBackoff 	1126
scalar LocScenario.node[23].nic.mac1609_4 	SlotsBackoff 	1707
scalar LocScenario.node[23].nic.mac1609_4 	NumInternalContention 	0
scalar LocScenario.node[23].nic.mac1609_4 	totalBusyTime 	2.8550626872
scalar LocScenario.node[23].veinsmobility 	startTime 	22.1
scalar LocScenario.node[23].veinsmobility 	totalTime 	112.5
scalar LocScenario.node[23].veinsmobility 	stopTime 	134.7
scalar LocScenario.node[23].veinsmobility 	minSpeed 	15.520783995532
scalar LocScenario.node[23].veinsmobility 	maxSpeed 	20.119996852856
scalar LocScenario.node[23].veinsmobility 	totalDistance 	2136.6315310582
scalar LocScenario.node[23].veinsmobility 	totalCO2Emission 	357.64605008819
scalar LocScenario.node[16].nic.phy80211p 	busyTime 	0.023210478589414
scalar LocScenario.node[16].nic.mac1609_4 	ReceivedUnicastPackets 	0
scalar LocScenario.node[16].nic.mac1609_4 	ReceivedBroadcasts 	37819
scalar LocScenario.node[16].nic.mac1609_4 	SentPackets 	1191
scalar LocScenario.node[16].nic.mac1609_4 	SNIRLostPackets 	575
scalar LocScenario.node[16].nic.mac1609_4 	RXTXLostPackets 	0
scalar LocScenario.node[16].nic.mac1609_4 	TotalLostPackets 	575
scalar LocScenario.node[16].nic.mac1609_4 	DroppedPacketsInMac 	0
scalar LocScenario.node[16].nic.mac1609_4 	TooLittleTime 	0
scalar LocScenario.node[16].nic.mac1609_4 	TimesIntoBackoff 	1191
scalar LocScenario.node[16].nic.mac1609_4 	SlotsBackoff 	1796
scalar LocScenario.node[16].nic.mac1609_4 	NumInternalContention 	0
scalar LocScenario.node[16].nic.mac1609_4 	totalBusyTime 	2.828271
scalar LocScenario.node[16].veinsmobility 	startTime 	16.1
scalar LocScenario.node[16].veinsmobility 	totalTime 	119
scalar LocScenario.node[16].veinsmobility 	stopTime 	135.2
scalar LocScenario.node[16].veinsmobility 	minSpeed 	19.990002866136
scalar LocScenario.node[16].veinsmobility 	maxSpeed 	20.119800037532
scalar LocScenario.node[16].veinsmobility 	totalDistance 	2388.7859776225
scalar LocScenario.node[16].veinsmobility 	totalCO2Emission 	378.36877034624
scalar LocScenario.node[25].nic.phy80211p 	busyTime 	0.025976269982228
scalar LocScenario.node[25].nic.mac1609_4 	ReceivedUnicastPackets 	0
scalar LocScenario.node[25].nic.mac1609_4 	ReceivedBroadcasts 	38707
scalar LocScenario.node[25].nic.mac1609_4 	SentPackets 	1126
scalar LocScenario.node[25].nic.mac1609_4 	SNIRLostPackets 	1917
scalar LocScenario.node[25].nic.mac1609_4 	RXTXLostPackets 	0
scalar LocScenario.node[25].nic.mac1609_4 	TotalLostPackets 	1917
scalar LocScenario.node[25].nic.mac1609_4 	DroppedPacketsInMac 	0
scalar LocScenario.node[25].nic.mac1609_4 	TooLittleTime 	0
scalar LocScenario.node[25].nic.mac1609_4 	TimesIntoBackoff 	1126
scalar LocScenario.node[25].nic.mac1609_4 	SlotsBackoff 	1692
scalar LocScenario.node[25].nic.mac1609_4 	NumInternalContention 	0
scalar LocScenario.node[25].nic.mac1609_4 	totalBusyTime 	2.937934382944
scalar LocScenario.node[25].veinsmobility 	startTime 	24.1
scalar LocScenario.node[25].veinsmobility 	totalTime 	112.5
scalar LocScenario.node[25].veinsmobility 	stopTime 	136.7
scalar LocScenario.node[25].veinsmobility 	minSpeed 	15.520366650675
scalar LocScenario.node[25].veinsmobility 	maxSpeed 	20.119810062046
scalar LocScenario.node[25].veinsmobility 	totalDistance 	2132.5149062884
scalar LocScenario.node[25].veinsmobility 	totalCO2Emission 	360.52899641524
scalar LocScenario.node[18].nic.phy80211p 	busyTime 	0.02398186397984
scalar LocScenario.node[18].nic.mac1609_4 	ReceivedUnicastPackets 	0
scalar LocScenario.node[18].nic.mac1609_4 	ReceivedBroadcasts 	39119
scalar LocScenario.node[18].nic.mac1609_4 	SentPackets 	1191
scalar LocScenario.node[18].nic.mac1609_4 	SNIRLostPackets 	551
scalar LocScenario.node[18].nic.mac1609_4 	RXTXLostPackets 	0
scalar LocScenario.node[18].nic.mac1609_4 	TotalLostPackets 	551
scalar LocScenario.node[18].nic.mac1609_4 	DroppedPacketsInMac 	0
scalar LocScenario.node[18].nic.mac1609_4 	TooLittleTime 	0
scalar LocScenario.node[18].nic.mac1609_4 	TimesIntoBackoff 	1191
scalar LocScenario.node[18].nic.mac1609_4 	SlotsBackoff 	1841
scalar LocScenario.node[18].nic.mac1609_4 	NumInternalContention 	0
scalar LocScenario.node[18].nic.mac1609_4 	totalBusyTime 	2.921079022822
scalar LocScenario.node[18].veinsmobility 	startTime 	18.1
scalar LocScenario.node[18].veinsmobility 	totalTime 	119
scalar LocScenario.node[18].veinsmobility 	stopTime 	137.2
scalar LocScenario.node[18].veinsmobility 	minSpeed 	19.990191545244
scalar LocScenario.node[18].veinsmobility 	maxSpeed 	20.119966582269
scalar LocScenario.node[18].veinsmobility 	totalDistance 	2390.3290896401
scalar LocScenario.node[18].veinsmobility 	totalCO2Emission 	378.22209591931
scalar LocScenario.node[27].nic.phy80211p 	busyTime 	0.026360568383648
scalar LocScenario.node[27].nic.mac1609_4 	ReceivedUnicastPackets 	0
scalar LocScenario.node[27].nic.mac1609_4 	ReceivedBroadcasts 	39364
scalar LocScenario.node[27].nic.mac1609_4 	SentPackets 	1126
scalar LocScenario.node[27].nic.mac1609_4 	SNIRLostPackets 	1861
scalar LocScenario.node[27].nic.mac1609_4 	RXTXLostPackets 	0
scalar LocScenario.node[27].nic.mac1609_4 	TotalLostPackets 	1861
scalar LocScenario.node[27].nic.mac1609_4 	DroppedPacketsInMac 	0
scalar LocScenario.node[27].nic.mac1609_4 	TooLittleTime 	0
scalar LocScenario.node[27].nic.mac1609_4 	TimesIntoBackoff 	1126
scalar LocScenario.node[27].nic.mac1609_4 	SlotsBackoff 	1606
scalar LocScenario.node[27].nic.mac1609_4 	NumInternalContention 	0
scalar LocScenario.node[27].nic.mac1609_4 	totalBusyTime 	2.983294074098
scalar LocScenario.node[27].veinsmobility 	startTime 	26.1
scalar LocScenario.node[27].veinsmobility 	totalTime 	112.5
scalar LocScenario.node[27].veinsmobility 	stopTime 	138.7
scalar LocScenario.node[27].veinsmobility 	minSpeed 	15.521158400744
scalar LocScenario.node[27].veinsmobility 	maxSpeed 	20.119951229803
scalar LocScenario.node[27].veinsmobility 	totalDistance 	2135.7233955149
scalar LocScenario.node[27].veinsmobility 	totalCO2Emission 	360.6960597052
scalar LocScenario.node[20].nic.phy80211p 	busyTime 	0.024744181360191
scalar LocScenario.node[20].nic.mac1609_4 	ReceivedUnicastPackets 	0
scalar LocScenario.node[20].nic.mac1609_4 	ReceivedBroadcasts 	40391
scalar LocScenario.node[20].nic.mac1609_4 	SentPackets 	1191
scalar LocScenario.node[20].nic.mac1609_4 	SNIRLostPackets 	540
scalar LocScenario.node[20].nic.mac1609_4 	RXTXLostPackets 	0
scalar LocScenario.node[20].nic.mac1609_4 	TotalLostPackets 	540
scalar LocScenario.node[20].nic.mac1609_4 	DroppedPacketsInMac 	0
scalar LocScenario.node[20].nic.mac1609_4 	TooLittleTime 	0
scalar LocScenario.node[20].nic.mac1609_4 	TimesIntoBackoff 	2182
scalar LocScenario.node[20].nic.mac1609_4 	SlotsBackoff 	3280
scalar LocScenario.node[20].nic.mac1609_4 	NumInternalContention 	0
scalar LocScenario.node[20].nic.mac1609_4 	totalBusyTime 	3.012591535318
scalar LocScenario.node[20].veinsmobility 	startTime 	20.1
scalar LocScenario.node[20].veinsmobility 	totalTime 	119
scalar LocScenario.node[20].veinsmobility 	stopTime 	139.2
scalar LocScenario.node[20].veinsmobility 	minSpeed 	19.990215385095
scalar LocScenario.node[20].veinsmobility 	maxSpeed 	20.119970024223
scalar LocScenario.node[20].veinsmobility 	totalDistance 	2388.1444168362
scalar LocScenario.node[20].veinsmobility 	totalCO2Emission 	378.87469818579
scalar LocScenario.node[29].nic.phy80211p 	busyTime 	0.026631687388976
scalar LocScenario.node[29].nic.mac1609_4 	ReceivedUnicastPackets 	0
scalar LocScenario.node[29].nic.mac1609_4 	ReceivedBroadcasts 	39830
scalar LocScenario.node[29].nic.mac1609_4 	SentPackets 	1126
scalar LocScenario.node[29].nic.mac1609_4 	SNIRLostPackets 	1819
scalar LocScenario.node[29].nic.mac1609_4 	RXTXLostPackets 	0
scalar LocScenario.node[29].nic.mac1609_4 	TotalLostPackets 	1819
scalar LocScenario.node[29].nic.mac1609_4 	DroppedPacketsInMac 	0
scalar LocScenario.node[29].nic.mac1609_4 	TooLittleTime 	0
scalar LocScenario.node[29].nic.mac1609_4 	TimesIntoBackoff 	1126
scalar LocScenario.node[29].nic.mac1609_4 	SlotsBackoff 	1733
scalar LocScenario.node[29].nic.mac1609_4 	NumInternalContention 	0
scalar LocScenario.node[29].nic.mac1609_4 	totalBusyTime 	3.015118
scalar LocScenario.node[29].veinsmobility 	startTime 	28.1
scalar LocScenario.node[29].veinsmobility 	totalTime 	112.5
scalar LocScenario.node[29].veinsmobility 	stopTime 	140.7
scalar LocScenario.node[29].veinsmobility 	minSpeed 	15.520024104151
scalar LocScenario.node[29].veinsmobility 	maxSpeed 	20.119828637023
scalar LocScenario.node[29].veinsmobility 	totalDistance 	2136.2992980609
scalar LocScenario.node[29].veinsmobility 	totalCO2Emission 	357.07858668939
scalar LocScenario.node[22].nic.phy80211p 	busyTime 	0.02547022670024
scalar LocScenario.node[22].nic.mac1609_4 	ReceivedUnicastPackets 	0
scalar LocScenario.node[22].nic.mac1609_4 	ReceivedBroadcasts 	41607
scalar LocScenario.node[22].nic.mac1609_4 	SentPackets 	1191
scalar LocScenario.node[22].nic.mac1609_4 	SNIRLostPackets 	525
scalar LocScenario.node[22].nic.mac1609_4 	RXTXLostPackets 	0
scalar LocScenario.node[22].nic.mac1609_4 	TotalLostPackets 	525
scalar LocScenario.node[22].nic.mac1609_4 	DroppedPacketsInMac 	0
scalar LocScenario.node[22].nic.mac1609_4 	TooLittleTime 	0
scalar LocScenario.node[22].nic.mac1609_4 	TimesIntoBackoff 	1191
scalar LocScenario.node[22].nic.mac1609_4 	SlotsBackoff 	1775
scalar LocScenario.node[22].nic.mac1609_4 	NumInternalContention 	0
scalar LocScenario.node[22].nic.mac1609_4 	totalBusyTime 	3.100359872723
scalar LocScenario.node[22].veinsmobility 	startTime 	22.1
scalar LocScenario.node[22].veinsmobility 	totalTime 	119
scalar LocScenario.node[22].veinsmobility 	stopTime 	141.2
scalar LocScenario.node[22].veinsmobility 	minSpeed 	19.990079874061
scalar LocScenario.node[22].veinsmobility 	maxSpeed 	20.119256575068
scalar LocScenario.node[22].veinsmobility 	totalDistance 	2390.3322540825
scalar LocScenario.node[22].veinsmobility 	totalCO2Emission 	376.65608974464
scalar LocScenario.node[31].nic.phy80211p 	busyTime 	0.026879147424499
scalar LocScenario.node[31].nic.mac1609_4 	ReceivedUnicastPackets 	0
scalar LocScenario.node[31].nic.mac1609_4 	ReceivedBroadcasts 	40238
scalar LocScenario.node[31].nic.mac1609_4 	SentPackets 	1126
scalar LocScenario.node[31].nic.mac1609_4 	SNIRLostPackets 	1798
scalar LocScenario.node[31].nic.mac1609_4 	RXTXLostPackets 	0
scalar LocScenario.node[31].nic.mac1609_4 	TotalLostPackets 	1798
scalar LocScenario.node[31].nic.mac1609_4 	DroppedPacketsInMac 	0
scalar LocScenario.node[31].nic.mac1609_4 	TooLittleTime 	0
scalar LocScenario.node[31].nic.mac1609_4 	TimesIntoBackoff 	1126
scalar LocScenario.node[31].nic.mac1609_4 	SlotsBackoff 	1712
scalar LocScenario.node[31].nic.mac1609_4 	NumInternalContention 	0
scalar LocScenario.node[31].nic.mac1609_4 	totalBusyTime 	3.043486039036
scalar LocScenario.node[31].veinsmobility 	startTime 	30.1
scalar LocScenario.node[31].veinsmobility 	totalTime 	112.5
scalar LocScenario.node[31].veinsmobility 	stopTime 	142.7
scalar LocScenario.node[31].veinsmobility 	minSpeed 	15.520544344746
scalar LocScenario.node[31].veinsmobility 	maxSpeed 	20.119973833873
scalar LocScenario.node[31].veinsmobility 	totalDistance 	2131.9272842872
scalar LocScenario.node[31].veinsmobility 	totalCO2Emission 	359.07787120928
scalar LocScenario.node[24].nic.phy80211p 	busyTime 	0.026211385390415
scalar LocScenario.node[24].nic.mac1609_4 	ReceivedUnicastPackets 	0
scalar LocScenario.node[24].nic.mac1609_4 	ReceivedBroadcasts 	42712
scalar LocScenario.node[24].nic.mac1609_4 	SentPackets 	1191
scalar LocScenario.node[24].nic.mac1609_4 	SNIRLostPackets 	646
scalar LocScenario.node[24].nic.mac1609_4 	RXTXLostPackets 	0
scalar LocScenario.node[24].nic.mac1609_4 	TotalLostPackets 	646
scalar LocScenario.node[24].nic.mac1609_4 	DroppedPacketsInMac 	0
scalar LocScenario.node[24].nic.mac1609_4 	TooLittleTime 	0
scalar LocScenario.node[24].nic.mac1609_4 	TimesIntoBackoff 	1452
scalar LocScenario.node[24].nic.mac1609_4 	SlotsBackoff 	2249
scalar LocScenario.node[24].nic.mac1609_4 	NumInternalContention 	0
scalar LocScenario.node[24].nic.mac1609_4 	totalBusyTime 	3.182655764371
scalar LocScenario.node[24].veinsmobility 	startTime 	24.1
scalar LocScenario.node[24].veinsmobility 	totalTime 	119
scalar LocScenario.node[24].veinsmobility 	stopTime 	143.2
scalar LocScenario.node[24].veinsmobility 	minSpeed 	19.990021041273
scalar LocScenario.node[24].veinsmobility 	maxSpeed 	20.119952244477
scalar LocScenario.node[24].veinsmobility 	totalDistance 	2388.3087423246
scalar LocScenario.node[24].veinsmobility 	totalCO2Emission 	380.50552987002
scalar LocScenario.node[33].nic.phy80211p 	busyTime 	0.027091438721124
scalar LocScenario.node[33].nic.mac1609_4 	ReceivedUnicastPackets 	0
scalar LocScenario.node[33].nic.mac1609_4 	ReceivedBroadcasts 	41337
scalar LocScenario.node[33].nic.mac1609_4 	SentPackets 	1126
scalar LocScenario.node[33].nic.mac1609_4 	SNIRLostPackets 	1031
scalar LocScenario.node[33].nic.mac1609_4 	RXTXLostPackets 	0
scalar LocScenario.node[33].nic.mac1609_4 	TotalLostPackets 	1031
scalar LocScenario.node[33].nic.mac1609_4 	DroppedPacketsInMac 	0
scalar LocScenario.node[33].nic.mac1609_4 	TooLittleTime 	0
scalar LocScenario.node[33].nic.mac1609_4 	TimesIntoBackoff 	1126
scalar LocScenario.node[33].nic.mac1609_4 	SlotsBackoff 	1711
scalar LocScenario.node[33].nic.mac1609_4 	NumInternalContention 	0
scalar LocScenario.node[33].nic.mac1609_4 	totalBusyTime 	3.09475
scalar LocScenario.node[33].veinsmobility 	startTime 	32.1
scalar LocScenario.node[33].veinsmobility 	totalTime 	112.5
scalar LocScenario.node[33].veinsmobility 	stopTime 	144.7
scalar LocScenario.node[33].veinsmobility 	minSpeed 	15.521226228753
scalar LocScenario.node[33].veinsmobility 	maxSpeed 	20.119904399482
scalar LocScenario.node[33].veinsmobility 	totalDistance 	2136.3140531043
scalar LocScenario.node[33].veinsmobility 	totalCO2Emission 	358.02513015899
scalar LocScenario.node[26].nic.phy80211p 	busyTime 	0.026514256926938
scalar LocScenario.node[26].nic.mac1609_4 	ReceivedUnicastPackets 	0
scalar LocScenario.node[26].nic.mac1609_4 	ReceivedBroadcasts 	42897
scalar LocScenario.node[26].nic.mac1609_4 	SentPackets 	1191
scalar LocScenario.node[26].nic.mac1609_4 	SNIRLostPackets 	962
scalar LocScenario.node[26].nic.mac1609_4 	RXTXLostPackets 	0
scalar LocScenario.node[26].nic.mac1609_4 	TotalLostPackets 	962
scalar LocScenario.node[26].nic.mac1609_4 	DroppedPacketsInMac 	0
scalar LocScenario.node[26].nic.mac1609_4 	TooLittleTime 	0
scalar LocScenario.node[26].nic.mac1609_4 	TimesIntoBackoff 	1191
scalar LocScenario.node[26].nic.mac1609_4 	SlotsBackoff 	1844
scalar LocScenario.node[26].nic.mac1609_4 	NumInternalContention 	0
scalar LocScenario.node[26].nic.mac1609_4 	totalBusyTime 	3.209590661662
scalar LocScenario.node[26].veinsmobility 	startTime 	26.1
scalar LocScenario.node[26].veinsmobility 	totalTime 	119
scalar LocScenario.node[26].veinsmobility 	stopTime 	145.2
scalar LocScenario.node[26].veinsmobility 	minSpeed 	19.990024178338
scalar LocScenario.node[26].veinsmobility 	maxSpeed 	20.119733447121
scalar LocScenario.node[26].veinsmobility 	totalDistance 	2390.4702298361
scalar LocScenario.node[26].veinsmobility 	totalCO2Emission 	379.62132479792
scalar LocScenario.node[35].nic.phy80211p 	busyTime 	0.027251936056825
scalar LocScenario.node[35].nic.mac1609_4 	ReceivedUnicastPackets 	0
scalar LocScenario.node[35].nic.mac1609_4 	ReceivedBroadcasts 	41783
scalar LocScenario.node[35].nic.mac1609_4 	SentPackets 	1126
scalar LocScenario.node[35].nic.mac1609_4 	SNIRLostPackets 	836
scalar LocScenario.node[35].nic.mac1609_4 	RXTXLostPackets 	0
scalar LocScenario.node[35].nic.mac1609_4 	TotalLostPackets 	836
scalar LocScenario.node[35].nic.mac1609_4 	DroppedPacketsInMac 	0
scalar LocScenario.node[35].nic.mac1609_4 	TooLittleTime 	0
scalar LocScenario.node[35].nic.mac1609_4 	TimesIntoBackoff 	1126
scalar LocScenario.node[35].nic.mac1609_4 	SlotsBackoff 	1681
scalar LocScenario.node[35].nic.mac1609_4 	NumInternalContention 	0
scalar LocScenario.node[35].nic.mac1609_4 	totalBusyTime 	3.120598023928
scalar LocScenario.node[35].veinsmobility 	startTime 	34.1
scalar LocScenario.node[35].veinsmobility 	totalTime 	112.5
scalar LocScenario.node[35].veinsmobility 	stopTime 	146.7
scalar LocScenario.node[35].veinsmobility 	minSpeed 	15.520311985577
scalar LocScenario.node[35].veinsmobility 	maxSpeed 	20.119822046836
scalar LocScenario.node[35].veinsmobility 	totalDistance 	2132.1822130602
scalar LocScenario.node[35].veinsmobility 	totalCO2Emission 	358.84216758831
scalar LocScenario.node[28].nic.phy80211p 	busyTime 	0.026759697732983
scalar LocScenario.node[28].nic.mac1609_4 	ReceivedUnicastPackets 	0
scalar LocScenario.node[28].nic.mac1609_4 	ReceivedBroadcasts 	41956
scalar LocScenario.node[28].nic.mac1609_4 	SentPackets 	1191
scalar LocScenario.node[28].nic.mac1609_4 	SNIRLostPackets 	2309
scalar LocScenario.node[28].nic.mac1609_4 	RXTXLostPackets 	0
scalar LocScenario.node[28].nic.mac1609_4 	TotalLostPackets 	2309
scalar LocScenario.node[28].nic.mac1609_4 	DroppedPacketsInMac 	0
scalar LocScenario.node[28].nic.mac1609_4 	TooLittleTime 	0
scalar LocScenario.node[28].nic.mac1609_4 	TimesIntoBackoff 	1191
scalar LocScenario.node[28].nic.mac1609_4 	SlotsBackoff 	1749
scalar LocScenario.node[28].nic.mac1609_4 	NumInternalContention 	0
scalar LocScenario.node[28].nic.mac1609_4 	totalBusyTime 	3.190514642752
scalar LocScenario.node[28].veinsmobility 	startTime 	28.1
scalar LocScenario.node[28].veinsmobility 	totalTime 	119
scalar LocScenario.node[28].veinsmobility 	stopTime 	147.2
scalar LocScenario.node[28].veinsmobility 	minSpeed 	19.99008840818
scalar LocScenario.node[28].veinsmobility 	maxSpeed 	20.119821976705
scalar LocScenario.node[28].veinsmobility 	totalDistance 	2388.4587658047
scalar LocScenario.node[28].veinsmobility 	totalCO2Emission 	378.32970999131
scalar LocScenario.node[37].nic.phy80211p 	busyTime 	0.027416269982225
scalar LocScenario.node[37].nic.mac1609_4 	ReceivedUnicastPackets 	0
scalar LocScenario.node[37].nic.mac1609_4 	ReceivedBroadcasts 	42023
scalar LocScenario.node[37].nic.mac1609_4 	SentPackets 	1126
scalar LocScenario.node[37].nic.mac1609_4 	SNIRLostPackets 	853
scalar LocScenario.node[37].nic.mac1609_4 	RXTXLostPackets 	0
scalar LocScenario.node[37].nic.mac1609_4 	TotalLostPackets 	853
scalar LocScenario.node[37].nic.mac1609_4 	DroppedPacketsInMac 	0
scalar LocScenario.node[37].nic.mac1609_4 	TooLittleTime 	0
scalar LocScenario.node[37].nic.mac1609_4 	TimesIntoBackoff 	1126
scalar LocScenario.node[37].nic.mac1609_4 	SlotsBackoff 	1696
scalar LocScenario.node[37].nic.mac1609_4 	NumInternalContention 	0
scalar LocScenario.node[37].nic.mac1609_4 	totalBusyTime 	3.138166212332
scalar LocScenario.node[37].veinsmobility 	startTime 	36.1
scalar LocScenario.node[37].veinsmobility 	totalTime 	112.5
scalar LocScenario.node[37].veinsmobility 	stopTime 	148.7
scalar LocScenario.node[37].veinsmobility 	minSpeed 	15.520681775284
scalar LocScenario.node[37].veinsmobility 	maxSpeed 	20.119802971166
scalar LocScenario.node[37].veinsmobility 	totalDistance 	2136.4551323124
scalar LocScenario.node[37].veinsmobility 	totalCO2Emission 	356.66149696044
scalar LocScenario.node[30].nic.phy80211p 	busyTime 	0.026906599496207
scalar LocScenario.node[30].nic.mac1609_4 	ReceivedUnicastPackets 	0
scalar LocScenario.node[30].nic.mac1609_4 	ReceivedBroadcasts 	42193
scalar LocScenario.node[30].nic.mac1609_4 	SentPackets 	1191
scalar LocScenario.node[30].nic.mac1609_4 	SNIRLostPackets 	2315
scalar LocScenario.node[30].nic.mac1609_4 	RXTXLostPackets 	0
scalar LocScenario.node[30].nic.mac1609_4 	TotalLostPackets 	2315
scalar LocScenario.node[30].nic.mac1609_4 	DroppedPacketsInMac 	0
scalar LocScenario.node[30].nic.mac1609_4 	TooLittleTime 	0
scalar LocScenario.node[30].nic.mac1609_4 	TimesIntoBackoff 	1362
scalar LocScenario.node[30].nic.mac1609_4 	SlotsBackoff 	2001
scalar LocScenario.node[30].nic.mac1609_4 	NumInternalContention 	0
scalar LocScenario.node[30].nic.mac1609_4 	totalBusyTime 	3.207718493462
scalar LocScenario.node[30].veinsmobility 	startTime 	30.1
scalar LocScenario.node[30].veinsmobility 	totalTime 	119
scalar LocScenario.node[30].veinsmobility 	stopTime 	149.2
scalar LocScenario.node[30].veinsmobility 	minSpeed 	19.990057140565
scalar LocScenario.node[30].veinsmobility 	maxSpeed 	20.119999478573
scalar LocScenario.node[30].veinsmobility 	totalDistance 	2390.4323787605
scalar LocScenario.node[30].veinsmobility 	totalCO2Emission 	377.87205592535
scalar LocScenario.node[39].nic.phy80211p 	busyTime 	0.02758827708702
scalar LocScenario.node[39].nic.mac1609_4 	ReceivedUnicastPackets 	0
scalar LocScenario.node[39].nic.mac1609_4 	ReceivedBroadcasts 	42430
scalar LocScenario.node[39].nic.mac1609_4 	SentPackets 	1126
scalar LocScenario.node[39].nic.mac1609_4 	SNIRLostPackets 	715
scalar LocScenario.node[39].nic.mac1609_4 	RXTXLostPackets 	0
scalar LocScenario.node[39].nic.mac1609_4 	TotalLostPackets 	715
scalar LocScenario.node[39].nic.mac1609_4 	DroppedPacketsInMac 	0
scalar LocScenario.node[39].nic.mac1609_4 	TooLittleTime 	0
scalar LocScenario.node[39].nic.mac1609_4 	TimesIntoBackoff 	2192
scalar LocScenario.node[39].nic.mac1609_4 	SlotsBackoff 	3273
scalar LocScenario.node[39].nic.mac1609_4 	NumInternalContention 	0
scalar LocScenario.node[39].nic.mac1609_4 	totalBusyTime 	3.162358358049
scalar LocScenario.node[39].veinsmobility 	startTime 	38.1
scalar LocScenario.node[39].veinsmobility 	totalTime 	112.5
scalar LocScenario.node[39].veinsmobility 	stopTime 	150.7
scalar LocScenario.node[39].veinsmobility 	minSpeed 	15.52022168919
scalar LocScenario.node[39].veinsmobility 	maxSpeed 	20.119880956837
scalar LocScenario.node[39].veinsmobility 	totalDistance 	2132.408600456
scalar LocScenario.node[39].veinsmobility 	totalCO2Emission 	362.64611273836
scalar LocScenario.node[32].nic.phy80211p 	busyTime 	0.027070428211572
scalar LocScenario.node[32].nic.mac1609_4 	ReceivedUnicastPackets 	0
scalar LocScenario.node[32].nic.mac1609_4 	ReceivedBroadcasts 	42458
scalar LocScenario.node[32].nic.mac1609_4 	SentPackets 	1191
scalar LocScenario.node[32].nic.mac1609_4 	SNIRLostPackets 	2321
scalar LocScenario.node[32].nic.mac1609_4 	RXTXLostPackets 	0
scalar LocScenario.node[32].nic.mac1609_4 	TotalLostPackets 	2321
scalar LocScenario.node[32].nic.mac1609_4 	DroppedPacketsInMac 	0
scalar LocScenario.node[32].nic.mac1609_4 	TooLittleTime 	0
scalar LocScenario.node[32].nic.mac1609_4 	TimesIntoBackoff 	1191
scalar LocScenario.node[32].nic.mac1609_4 	SlotsBackoff 	1697
scalar LocScenario.node[32].nic.mac1609_4 	NumInternalContention 	0
scalar LocScenario.node[32].nic.mac1609_4 	totalBusyTime 	3.22657619074
scalar LocScenario.node[32].veinsmobility 	startTime 	32.1
scalar LocScenario.node[32].veinsmobility 	totalTime 	119
scalar LocScenario.node[32].veinsmobility 	stopTime 	151.2
scalar LocScenario.node[32].veinsmobility 	minSpeed 	19.990004677705
scalar LocScenario.node[32].veinsmobility 	maxSpeed 	20.119948237117
scalar LocScenario.node[32].veinsmobility 	totalDistance 	2388.3343134201
scalar LocScenario.node[32].veinsmobility 	totalCO2Emission 	379.25762293153
scalar LocScenario.node[41].nic.phy80211p 	busyTime 	0.02773854351686
scalar LocScenario.node[41].nic.mac1609_4 	ReceivedUnicastPackets 	0
scalar LocScenario.node[41].nic.mac1609_4 	ReceivedBroadcasts 	42695
scalar LocScenario.node[41].nic.mac1609_4 	SentPackets 	1126
scalar LocScenario.node[41].nic.mac1609_4 	SNIRLostPackets 	685
scalar LocScenario.node[41].nic.mac1609_4 	RXTXLostPackets 	15
scalar LocScenario.node[41].nic.mac1609_4 	TotalLostPackets 	700
scalar LocScenario.node[41].nic.mac1609_4 	DroppedPacketsInMac 	0
scalar LocScenario.node[41].nic.mac1609_4 	TooLittleTime 	0
scalar LocScenario.node[41].nic.mac1609_4 	TimesIntoBackoff 	2052
scalar LocScenario.node[41].nic.mac1609_4 	SlotsBackoff 	3018
scalar LocScenario.node[41].nic.mac1609_4 	NumInternalContention 	0
scalar LocScenario.node[41].nic.mac1609_4 	totalBusyTime 	3.180617673745
scalar LocScenario.node[41].veinsmobility 	startTime 	40.1
scalar LocScenario.node[41].veinsmobility 	totalTime 	112.5
scalar LocScenario.node[41].veinsmobility 	stopTime 	152.7
scalar LocScenario.node[41].veinsmobility 	minSpeed 	15.520461560388
scalar LocScenario.node[41].veinsmobility 	maxSpeed 	20.119378134045
scalar LocScenario.node[41].veinsmobility 	totalDistance 	2136.5809358386
scalar LocScenario.node[41].veinsmobility 	totalCO2Emission 	360.82815901427
scalar LocScenario.node[34].nic.phy80211p 	busyTime 	0.027233047858927
scalar LocScenario.node[34].nic.mac1609_4 	ReceivedUnicastPackets 	0
scalar LocScenario.node[34].nic.mac1609_4 	ReceivedBroadcasts 	42639
scalar LocScenario.node[34].nic.mac1609_4 	SentPackets 	1191
scalar LocScenario.node[34].nic.mac1609_4 	SNIRLostPackets 	2409
scalar LocScenario.node[34].nic.mac1609_4 	RXTXLostPackets 	0
scalar LocScenario.node[34].nic.mac1609_4 	TotalLostPackets 	2409
scalar LocScenario.node[34].nic.mac1609_4 	DroppedPacketsInMac 	0
scalar LocScenario.node[34].nic.mac1609_4 	TooLittleTime 	0
scalar LocScenario.node[34].nic.mac1609_4 	TimesIntoBackoff 	1191
scalar LocScenario.node[34].nic.mac1609_4 	SlotsBackoff 	1733
scalar LocScenario.node[34].nic.mac1609_4 	NumInternalContention 	0
scalar LocScenario.node[34].nic.mac1609_4 	totalBusyTime 	3.242343
scalar LocScenario.node[34].veinsmobility 	startTime 	34.1
scalar LocScenario.node[34].veinsmobility 	totalTime 	119
scalar LocScenario.node[34].veinsmobility 	stopTime 	153.2
scalar LocScenario.node[34].veinsmobility 	minSpeed 	19.990040949767
scalar LocScenario.node[34].veinsmobility 	maxSpeed 	20.119895664898
scalar LocScenario.node[34].veinsmobility 	totalDistance 	2388.3164978345
scalar LocScenario.node[34].veinsmobility 	totalCO2Emission 	382.52641569348
scalar LocScenario.node[43].nic.phy80211p 	busyTime 	0.027922060390749
scalar LocScenario.node[43].nic.mac1609_4 	ReceivedUnicastPackets 	0
scalar LocScenario.node[43].nic.mac1609_4 	ReceivedBroadcasts 	42738
scalar LocScenario.node[43].nic.mac1609_4 	SentPackets 	1126
scalar LocScenario.node[43].nic.mac1609_4 	SNIRLostPackets 	929
scalar LocScenario.node[43].nic.mac1609_4 	RXTXLostPackets 	14
scalar LocScenario.node[43].nic.mac1609_4 	TotalLostPackets 	943
scalar LocScenario.node[43].nic.mac1609_4 	DroppedPacketsInMac 	0
scalar LocScenario.node[43].nic.mac1609_4 	TooLittleTime 	0
scalar LocScenario.node[43].nic.mac1609_4 	TimesIntoBackoff 	1371
scalar LocScenario.node[43].nic.mac1609_4 	SlotsBackoff 	2093
scalar LocScenario.node[43].nic.mac1609_4 	NumInternalContention 	0
scalar LocScenario.node[43].nic.mac1609_4 	totalBusyTime 	3.192694650737
scalar LocScenario.node[43].veinsmobility 	startTime 	42.1
scalar LocScenario.node[43].veinsmobility 	totalTime 	112.5
scalar LocScenario.node[43].veinsmobility 	stopTime 	154.7
scalar LocScenario.node[43].veinsmobility 	minSpeed 	15.52029822109
scalar LocScenario.node[43].veinsmobility 	maxSpeed 	20.119926886656
scalar LocScenario.node[43].veinsmobility 	totalDistance 	2132.0746098266
scalar LocScenario.node[43].veinsmobility 	totalCO2Emission 	361.54408092636
scalar LocScenario.node[36].nic.phy80211p 	busyTime 	0.027374508816105
scalar LocScenario.node[36].nic.mac1609_4 	ReceivedUnicastPackets 	0
scalar LocScenario.node[36].nic.mac1609_4 	ReceivedBroadcasts 	42637
scalar LocScenario.node[36].nic.mac1609_4 	SentPackets 	1191
scalar LocScenario.node[36].nic.mac1609_4 	SNIRLostPackets 	2645
scalar LocScenario.node[36].nic.mac1609_4 	RXTXLostPackets 	0
scalar LocScenario.node[36].nic.mac1609_4 	TotalLostPackets 	2645
scalar LocScenario.node[36].nic.mac1609_4 	DroppedPacketsInMac 	0
scalar LocScenario.node[36].nic.mac1609_4 	TooLittleTime 	0
scalar LocScenario.node[36].nic.mac1609_4 	TimesIntoBackoff 	1191
scalar LocScenario.node[36].nic.mac1609_4 	SlotsBackoff 	1813
scalar LocScenario.node[36].nic.mac1609_4 	NumInternalContention 	0
scalar LocScenario.node[36].nic.mac1609_4 	totalBusyTime 	3.250191
scalar LocScenario.node[36].veinsmobility 	startTime 	36.1
scalar LocScenario.node[36].veinsmobility 	totalTime 	119
scalar LocScenario.node[36].veinsmobility 	stopTime 	155.2
scalar LocScenario.node[36].veinsmobility 	minSpeed 	19.990121660102
scalar LocScenario.node[36].veinsmobility 	maxSpeed 	20.119963713954
scalar LocScenario.node[36].veinsmobility 	totalDistance 	2390.2973200437
scalar LocScenario.node[36].veinsmobility 	totalCO2Emission 	376.91839329368
scalar LocScenario.node[45].nic.phy80211p 	busyTime 	0.028072966252206
scalar LocScenario.node[45].nic.mac1609_4 	ReceivedUnicastPackets 	0
scalar LocScenario.node[45].nic.mac1609_4 	ReceivedBroadcasts 	42938
scalar LocScenario.node[45].nic.mac1609_4 	SentPackets 	1126
scalar LocScenario.node[45].nic.mac1609_4 	SNIRLostPackets 	965
scalar LocScenario.node[45].nic.mac1609_4 	RXTXLostPackets 	0
scalar LocScenario.node[45].nic.mac1609_4 	TotalLostPackets 	965
scalar LocScenario.node[45].nic.mac1609_4 	DroppedPacketsInMac 	0
scalar LocScenario.node[45].nic.mac1609_4 	TooLittleTime 	0
scalar LocScenario.node[45].nic.mac1609_4 	TimesIntoBackoff 	1126
scalar LocScenario.node[45].nic.mac1609_4 	SlotsBackoff 	1670
scalar LocScenario.node[45].nic.mac1609_4 	NumInternalContention 	0
scalar LocScenario.node[45].nic.mac1609_4 	totalBusyTime 	3.208294
scalar LocScenario.node[45].veinsmobility 	startTime 	44.1
scalar LocScenario.node[45].veinsmobility 	totalTime 	112.5
scalar LocScenario.node[45].veinsmobility 	stopTime 	156.7
scalar LocScenario.node[45].veinsmobility 	minSpeed 	15.520003776567
scalar LocScenario.node[45].veinsmobility 	maxSpeed 	20.119952662599
scalar LocScenario.node[45].veinsmobility 	totalDistance 	2136.9151568247
scalar LocScenario.node[45].veinsmobility 	totalCO2Emission 	356.90066463601
scalar LocScenario.node[38].nic.phy80211p 	busyTime 	0.027494206549103
scalar LocScenario.node[38].nic.mac1609_4 	ReceivedUnicastPackets 	0
scalar LocScenario.node[38].nic.mac1609_4 	ReceivedBroadcasts 	42078
scalar LocScenario.node[38].nic.mac1609_4 	SentPackets 	1191
scalar LocScenario.node[38].nic.mac1609_4 	SNIRLostPackets 	3402
scalar LocScenario.node[38].nic.mac1609_4 	RXTXLostPackets 	18
scalar LocScenario.node[38].nic.mac1609_4 	TotalLostPackets 	3420
scalar LocScenario.node[38].nic.mac1609_4 	DroppedPacketsInMac 	0
scalar LocScenario.node[38].nic.mac1609_4 	TooLittleTime 	0
scalar LocScenario.node[38].nic.mac1609_4 	TimesIntoBackoff 	1708
scalar LocScenario.node[38].nic.mac1609_4 	SlotsBackoff 	2510
scalar LocScenario.node[38].nic.mac1609_4 	NumInternalContention 	0
scalar LocScenario.node[38].nic.mac1609_4 	totalBusyTime 	3.237231008744
scalar LocScenario.node[38].veinsmobility 	startTime 	38.1
scalar LocScenario.node[38].veinsmobility 	totalTime 	119
scalar LocScenario.node[38].veinsmobility 	stopTime 	157.2
scalar LocScenario.node[38].veinsmobility 	minSpeed 	19.990044740257
scalar LocScenario.node[38].veinsmobility 	maxSpeed 	20.119923923542
scalar LocScenario.node[38].veinsmobility 	totalDistance 	2387.0205524927
scalar LocScenario.node[38].veinsmobility 	totalCO2Emission 	377.36300051982
scalar LocScenario.node[47].nic.phy80211p 	busyTime 	0.028257122557711
scalar LocScenario.node[47].nic.mac1609_4 	ReceivedUnicastPackets 	0
scalar LocScenario.node[47].nic.mac1609_4 	ReceivedBroadcasts 	43287
scalar LocScenario.node[47].nic.mac1609_4 	SentPackets 	1126
scalar LocScenario.node[47].nic.mac1609_4 	SNIRLostPackets 	904
scalar LocScenario.node[47].nic.mac1609_4 	RXTXLostPackets 	0
scalar LocScenario.node[47].nic.mac1609_4 	TotalLostPackets 	904
scalar LocScenario.node[47].nic.mac1609_4 	DroppedPacketsInMac 	0
scalar LocScenario.node[47].nic.mac1609_4 	TooLittleTime 	0
scalar LocScenario.node[47].nic.mac1609_4 	TimesIntoBackoff 	1126
scalar LocScenario.node[47].nic.mac1609_4 	SlotsBackoff 	1755
scalar LocScenario.node[47].nic.mac1609_4 	NumInternalContention 	0
scalar LocScenario.node[47].nic.mac1609_4 	totalBusyTime 	3.23083
scalar LocScenario.node[47].veinsmobility 	startTime 	46.1
scalar LocScenario.node[47].veinsmobility 	totalTime 	112.5
scalar LocScenario.node[47].veinsmobility 	stopTime 	158.7
scalar LocScenario.node[47].veinsmobility 	minSpeed 	15.520365457966
scalar LocScenario.node[47].veinsmobility 	maxSpeed 	20.119807674265
scalar LocScenario.node[47].veinsmobility 	totalDistance 	2132.3323422793
scalar LocScenario.node[47].veinsmobility 	totalCO2Emission 	358.80765438235
scalar LocScenario.node[40].nic.phy80211p 	busyTime 	0.027679193954644
scalar LocScenario.node[40].nic.mac1609_4 	ReceivedUnicastPackets 	0
scalar LocScenario.node[40].nic.mac1609_4 	ReceivedBroadcasts 	42244
scalar LocScenario.node[40].nic.mac1609_4 	SentPackets 	1191
scalar LocScenario.node[40].nic.mac1609_4 	SNIRLostPackets 	3542
scalar LocScenario.node[40].nic.mac1609_4 	RXTXLostPackets 	0
scalar LocScenario.node[40].nic.mac1609_4 	TotalLostPackets 	3542
scalar LocScenario.node[40].nic.mac1609_4 	DroppedPacketsInMac 	0
scalar LocScenario.node[40].nic.mac1609_4 	TooLittleTime 	0
scalar LocScenario.node[40].nic.mac1609_4 	TimesIntoBackoff 	1191
scalar LocScenario.node[40].nic.mac1609_4 	SlotsBackoff 	1686
scalar LocScenario.node[40].nic.mac1609_4 	NumInternalContention 	0
scalar LocScenario.node[40].nic.mac1609_4 	totalBusyTime 	3.254295
scalar LocScenario.node[40].veinsmobility 	startTime 	40.1
scalar LocScenario.node[40].veinsmobility 	totalTime 	119
scalar LocScenario.node[40].veinsmobility 	stopTime 	159.2
scalar LocScenario.node[40].veinsmobility 	minSpeed 	19.990130965933
scalar LocScenario.node[40].veinsmobility 	maxSpeed 	20.119955688247
scalar LocScenario.node[40].veinsmobility 	totalDistance 	2390.1804002558
scalar LocScenario.node[40].veinsmobility 	totalCO2Emission 	376.23418545125
scalar LocScenario.node[49].nic.phy80211p 	busyTime 	0.028409946714017
scalar LocScenario.node[49].nic.mac1609_4 	ReceivedUnicastPackets 	0
scalar LocScenario.node[49].nic.mac1609_4 	ReceivedBroadcasts 	43288
scalar LocScenario.node[49].nic.mac1609_4 	SentPackets 	1126
scalar LocScenario.node[49].nic.mac1609_4 	SNIRLostPackets 	1142
scalar LocScenario.node[49].nic.mac1609_4 	RXTXLostPackets 	0
scalar LocScenario.node[49].nic.mac1609_4 	TotalLostPackets 	1142
scalar LocScenario.node[49].nic.mac1609_4 	DroppedPacketsInMac 	0
scalar LocScenario.node[49].nic.mac1609_4 	TooLittleTime 	0
scalar LocScenario.node[49].nic.mac1609_4 	TimesIntoBackoff 	1126
scalar LocScenario.node[49].nic.mac1609_4 	SlotsBackoff 	1712
scalar LocScenario.node[49].nic.mac1609_4 	NumInternalContention 	0
scalar LocScenario.node[49].nic.mac1609_4 	totalBusyTime 	3.239398
scalar LocScenario.node[49].veinsmobility 	startTime 	48.1
scalar LocScenario.node[49].veinsmobility 	totalTime 	112.5
scalar LocScenario.node[49].veinsmobility 	stopTime 	160.7
scalar LocScenario.node[49].veinsmobility 	minSpeed 	15.520048371598
scalar LocScenario.node[49].veinsmobility 	maxSpeed 	20.119694328173
scalar LocScenario.node[49].veinsmobility 	totalDistance 	2136.8057733272
scalar LocScenario.node[49].veinsmobility 	totalCO2Emission 	360.55798439639
scalar LocScenario.node[42].nic.phy80211p 	busyTime 	0.027843627204014
scalar LocScenario.node[42].nic.mac1609_4 	ReceivedUnicastPackets 	0
scalar LocScenario.node[42].nic.mac1609_4 	ReceivedBroadcasts 	42484
scalar LocScenario.node[42].nic.mac1609_4 	SentPackets 	1191
scalar LocScenario.node[42].nic.mac1609_4 	SNIRLostPackets 	3574
scalar LocScenario.node[42].nic.mac1609_4 	RXTXLostPackets 	0
scalar LocScenario.node[42].nic.mac1609_4 	TotalLostPackets 	3574
scalar LocScenario.node[42].nic.mac1609_4 	DroppedPacketsInMac 	0
scalar LocScenario.node[42].nic.mac1609_4 	TooLittleTime 	0
scalar LocScenario.node[42].nic.mac1609_4 	TimesIntoBackoff 	1191
scalar LocScenario.node[42].nic.mac1609_4 	SlotsBackoff 	1838
scalar LocScenario.node[42].nic.mac1609_4 	NumInternalContention 	0
scalar LocScenario.node[42].nic.mac1609_4 	totalBusyTime 	3.272439
scalar LocScenario.node[42].veinsmobility 	startTime 	42.1
scalar LocScenario.node[42].veinsmobility 	totalTime 	119
scalar LocScenario.node[42].veinsmobility 	stopTime 	161.2
scalar LocScenario.node[42].veinsmobility 	minSpeed 	19.990075172626
scalar LocScenario.node[42].veinsmobility 	maxSpeed 	20.11995794185
scalar LocScenario.node[42].veinsmobility 	totalDistance 	2388.4934808735
scalar LocScenario.node[42].veinsmobility 	totalCO2Emission 	377.94555875389
scalar LocScenario.node[51].nic.phy80211p 	busyTime 	0.028576198934265
scalar LocScenario.node[51].nic.mac1609_4 	ReceivedUnicastPackets 	0
scalar LocScenario.node[51].nic.mac1609_4 	ReceivedBroadcasts 	43553
scalar LocScenario.node[51].nic.mac1609_4 	SentPackets 	1126
scalar LocScenario.node[51].nic.mac1609_4 	SNIRLostPackets 	1137
scalar LocScenario.node[51].nic.mac1609_4 	RXTXLostPackets 	0
scalar LocScenario.node[51].nic.mac1609_4 	TotalLostPackets 	1137
scalar LocScenario.node[51].nic.mac1609_4 	DroppedPacketsInMac 	0
scalar LocScenario.node[51].nic.mac1609_4 	TooLittleTime 	0
scalar LocScenario.node[51].nic.mac1609_4 	TimesIntoBackoff 	1126
scalar LocScenario.node[51].nic.mac1609_4 	SlotsBackoff 	1721
scalar LocScenario.node[51].nic.mac1609_4 	NumInternalContention 	0
scalar LocScenario.node[51].nic.mac1609_4 	totalBusyTime 	3.258838
scalar LocScenario.node[51].veinsmobility 	startTime 	50.1
scalar LocScenario.node[51].veinsmobility 	totalTime 	112.5
scalar LocScenario.node[51].veinsmobility 	stopTime 	162.7
scalar LocScenario.node[51].veinsmobility 	minSpeed 	15.521985377297
scalar LocScenario.node[51].veinsmobility 	maxSpeed 	20.119899287522
scalar LocScenario.node[51].veinsmobility 	totalDistance 	2136.7293071642
scalar LocScenario.node[51].veinsmobility 	totalCO2Emission 	357.93092098316
scalar LocScenario.node[44].nic.phy80211p 	busyTime 	0.028017732997464
scalar LocScenario.node[44].nic.mac1609_4 	ReceivedUnicastPackets 	0
scalar LocScenario.node[44].nic.mac1609_4 	ReceivedBroadcasts 	42585
scalar LocScenario.node[44].nic.mac1609_4 	SentPackets 	1191
scalar LocScenario.node[44].nic.mac1609_4 	SNIRLostPackets 	3761
scalar LocScenario.node[44].nic.mac1609_4 	RXTXLostPackets 	0
scalar LocScenario.node[44].nic.mac1609_4 	TotalLostPackets 	3761
scalar LocScenario.node[44].nic.mac1609_4 	DroppedPacketsInMac 	0
scalar LocScenario.node[44].nic.mac1609_4 	TooLittleTime 	0
scalar LocScenario.node[44].nic.mac1609_4 	TimesIntoBackoff 	1191
scalar LocScenario.node[44].nic.mac1609_4 	SlotsBackoff 	1755
scalar LocScenario.node[44].nic.mac1609_4 	NumInternalContention 	0
scalar LocScenario.node[44].nic.mac1609_4 	totalBusyTime 	3.286911
scalar LocScenario.node[44].veinsmobility 	startTime 	44.1
scalar LocScenario.node[44].veinsmobility 	totalTime 	119
scalar LocScenario.node[44].veinsmobility 	stopTime 	163.2
scalar LocScenario.node[44].veinsmobility 	minSpeed 	19.990025450441
scalar LocScenario.node[44].veinsmobility 	maxSpeed 	20.119987084651
scalar LocScenario.node[44].veinsmobility 	totalDistance 	2388.4643881076
scalar LocScenario.node[44].veinsmobility 	totalCO2Emission 	379.51509735445
scalar LocScenario.node[53].nic.phy80211p 	busyTime 	0.028780177619877
scalar LocScenario.node[53].nic.mac1609_4 	ReceivedUnicastPackets 	0
scalar LocScenario.node[53].nic.mac1609_4 	ReceivedBroadcasts 	43891
scalar LocScenario.node[53].nic.mac1609_4 	SentPackets 	1126
scalar LocScenario.node[53].nic.mac1609_4 	SNIRLostPackets 	1118
scalar LocScenario.node[53].nic.mac1609_4 	RXTXLostPackets 	0
scalar LocScenario.node[53].nic.mac1609_4 	TotalLostPackets 	1118
scalar LocScenario.node[53].nic.mac1609_4 	DroppedPacketsInMac 	0
scalar LocScenario.node[53].nic.mac1609_4 	TooLittleTime 	0
scalar LocScenario.node[53].nic.mac1609_4 	TimesIntoBackoff 	1126
scalar LocScenario.node[53].nic.mac1609_4 	SlotsBackoff 	1707
scalar LocScenario.node[53].nic.mac1609_4 	NumInternalContention 	0
scalar LocScenario.node[53].nic.mac1609_4 	totalBusyTime 	3.282526
scalar LocScenario.node[53].veinsmobility 	startTime 	52.1
scalar LocScenario.node[53].veinsmobility 	totalTime 	112.5
scalar LocScenario.node[53].veinsmobility 	stopTime 	164.7
scalar LocScenario.node[53].veinsmobility 	minSpeed 	15.520037910135
scalar LocScenario.node[53].veinsmobility 	maxSpeed 	20.119916344257
scalar LocScenario.node[53].veinsmobility 	totalDistance 	2136.3691510458
scalar LocScenario.node[53].veinsmobility 	totalCO2Emission 	360.27720242151
scalar LocScenario.node[46].nic.phy80211p 	busyTime 	0.028177934508799
scalar LocScenario.node[46].nic.mac1609_4 	ReceivedUnicastPackets 	0
scalar LocScenario.node[46].nic.mac1609_4 	ReceivedBroadcasts 	44048
scalar LocScenario.node[46].nic.mac1609_4 	SentPackets 	1191
scalar LocScenario.node[46].nic.mac1609_4 	SNIRLostPackets 	2563
scalar LocScenario.node[46].nic.mac1609_4 	RXTXLostPackets 	0
scalar LocScenario.node[46].nic.mac1609_4 	TotalLostPackets 	2563
scalar LocScenario.node[46].nic.mac1609_4 	DroppedPacketsInMac 	0
scalar LocScenario.node[46].nic.mac1609_4 	TooLittleTime 	0
scalar LocScenario.node[46].nic.mac1609_4 	TimesIntoBackoff 	1191
scalar LocScenario.node[46].nic.mac1609_4 	SlotsBackoff 	1800
scalar LocScenario.node[46].nic.mac1609_4 	NumInternalContention 	0
scalar LocScenario.node[46].nic.mac1609_4 	totalBusyTime 	3.349191
scalar LocScenario.node[46].veinsmobility 	startTime 	46.1
scalar LocScenario.node[46].veinsmobility 	totalTime 	119
scalar LocScenario.node[46].veinsmobility 	stopTime 	165.2
scalar LocScenario.node[46].veinsmobility 	minSpeed 	19.990481699705
scalar LocScenario.node[46].veinsmobility 	maxSpeed 	20.119876849744
scalar LocScenario.node[46].veinsmobility 	totalDistance 	2390.4009815016
scalar LocScenario.node[46].veinsmobility 	totalCO2Emission 	379.71473968368
scalar LocScenario.node[55].nic.phy80211p 	busyTime 	0.028941953818811
scalar LocScenario.node[55].nic.mac1609_4 	ReceivedUnicastPackets 	0
scalar LocScenario.node[55].nic.mac1609_4 	ReceivedBroadcasts 	44218
scalar LocScenario.node[55].nic.mac1609_4 	SentPackets 	1126
scalar LocScenario.node[55].nic.mac1609_4 	SNIRLostPackets 	1044
scalar LocScenario.node[55].nic.mac1609_4 	RXTXLostPackets 	0
scalar LocScenario.node[55].nic.mac1609_4 	TotalLostPackets 	1044
scalar LocScenario.node[55].nic.mac1609_4 	DroppedPacketsInMac 	0
scalar LocScenario.node[55].nic.mac1609_4 	TooLittleTime 	0
scalar LocScenario.node[55].nic.mac1609_4 	TimesIntoBackoff 	1126
scalar LocScenario.node[55].nic.mac1609_4 	SlotsBackoff 	1738
scalar LocScenario.node[55].nic.mac1609_4 	NumInternalContention 	0
scalar LocScenario.node[55].nic.mac1609_4 	totalBusyTime 	3.301966
scalar LocScenario.node[55].veinsmobility 	startTime 	54.1
scalar LocScenario.node[55].veinsmobility 	totalTime 	112.5
scalar LocScenario.node[55].veinsmobility 	stopTime 	166.7
scalar LocScenario.node[55].veinsmobility 	minSpeed 	15.520823681944
scalar LocScenario.node[55].veinsmobility 	maxSpeed 	20.119967419936
scalar LocScenario.node[55].veinsmobility 	totalDistance 	2132.3489159784
scalar LocScenario.node[55].veinsmobility 	totalCO2Emission 	360.09422604986
scalar LocScenario.node[48].nic.phy80211p 	busyTime 	0.028292191435751
scalar LocScenario.node[48].nic.mac1609_4 	ReceivedUnicastPackets 	0
scalar LocScenario.node[48].nic.mac1609_4 	ReceivedBroadcasts 	44619
scalar LocScenario.node[48].nic.mac1609_4 	SentPackets 	1191
scalar LocScenario.node[48].nic.mac1609_4 	SNIRLostPackets 	2181
scalar LocScenario.node[48].nic.mac1609_4 	RXTXLostPackets 	0
scalar LocScenario.node[48].nic.mac1609_4 	TotalLostPackets 	2181
scalar LocScenario.node[48].nic.mac1609_4 	DroppedPacketsInMac 	0
scalar LocScenario.node[48].nic.mac1609_4 	TooLittleTime 	0
scalar LocScenario.node[48].nic.mac1609_4 	TimesIntoBackoff 	1191
scalar LocScenario.node[48].nic.mac1609_4 	SlotsBackoff 	1759
scalar LocScenario.node[48].nic.mac1609_4 	NumInternalContention 	0
scalar LocScenario.node[48].nic.mac1609_4 	totalBusyTime 	3.372735020789
scalar LocScenario.node[48].veinsmobility 	startTime 	48.1
scalar LocScenario.node[48].veinsmobility 	totalTime 	119
scalar LocScenario.node[48].veinsmobility 	stopTime 	167.2
scalar LocScenario.node[48].veinsmobility 	minSpeed 	19.99002099802
scalar LocScenario.node[48].veinsmobility 	maxSpeed 	20.119966999968
scalar LocScenario.node[48].veinsmobility 	totalDistance 	2387.1030070588
scalar LocScenario.node[48].veinsmobility 	totalCO2Emission 	377.23306230744
scalar LocScenario.node[57].nic.phy80211p 	busyTime 	0.029087744227337
scalar LocScenario.node[57].nic.mac1609_4 	ReceivedUnicastPackets 	0
scalar LocScenario.node[57].nic.mac1609_4 	ReceivedBroadcasts 	44500
scalar LocScenario.node[57].nic.mac1609_4 	SentPackets 	1126
scalar LocScenario.node[57].nic.mac1609_4 	SNIRLostPackets 	990
scalar LocScenario.node[57].nic.mac1609_4 	RXTXLostPackets 	40
scalar LocScenario.node[57].nic.mac1609_4 	TotalLostPackets 	1030
scalar LocScenario.node[57].nic.mac1609_4 	DroppedPacketsInMac 	0
scalar LocScenario.node[57].nic.mac1609_4 	TooLittleTime 	0
scalar LocScenario.node[57].nic.mac1609_4 	TimesIntoBackoff 	1365
scalar LocScenario.node[57].nic.mac1609_4 	SlotsBackoff 	2005
scalar LocScenario.node[57].nic.mac1609_4 	NumInternalContention 	0
scalar LocScenario.node[57].nic.mac1609_4 	totalBusyTime 	3.321766
scalar LocScenario.node[57].veinsmobility 	startTime 	56.1
scalar LocScenario.node[57].veinsmobility 	totalTime 	112.5
scalar LocScenario.node[57].veinsmobility 	stopTime 	168.7
scalar LocScenario.node[57].veinsmobility 	minSpeed 	15.520245881632
scalar LocScenario.node[57].veinsmobility 	maxSpeed 	20.1199817929
scalar LocScenario.node[57].veinsmobility 	totalDistance 	2136.5302576944
scalar LocScenario.node[57].veinsmobility 	totalCO2Emission 	360.27879215706
scalar LocScenario.node[50].nic.phy80211p 	busyTime 	0.028491083123408
scalar LocScenario.node[50].nic.mac1609_4 	ReceivedUnicastPackets 	0
scalar LocScenario.node[50].nic.mac1609_4 	ReceivedBroadcasts 	45795
scalar LocScenario.node[50].nic.mac1609_4 	SentPackets 	1191
scalar LocScenario.node[50].nic.mac1609_4 	SNIRLostPackets 	1334
scalar LocScenario.node[50].nic.mac1609_4 	RXTXLostPackets 	0
scalar LocScenario.node[50].nic.mac1609_4 	TotalLostPackets 	1334
scalar LocScenario.node[50].nic.mac1609_4 	DroppedPacketsInMac 	0
scalar LocScenario.node[50].nic.mac1609_4 	TooLittleTime 	0
scalar LocScenario.node[50].nic.mac1609_4 	TimesIntoBackoff 	1191
scalar LocScenario.node[50].nic.mac1609_4 	SlotsBackoff 	1815
scalar LocScenario.node[50].nic.mac1609_4 	NumInternalContention 	0
scalar LocScenario.node[50].nic.mac1609_4 	totalBusyTime 	3.430263369775
scalar LocScenario.node[50].veinsmobility 	startTime 	50.1
scalar LocScenario.node[50].veinsmobility 	totalTime 	119
scalar LocScenario.node[50].veinsmobility 	stopTime 	169.2
scalar LocScenario.node[50].veinsmobility 	minSpeed 	19.990044002747
scalar LocScenario.node[50].veinsmobility 	maxSpeed 	20.119917687066
scalar LocScenario.node[50].veinsmobility 	totalDistance 	2390.3149226513
scalar LocScenario.node[50].veinsmobility 	totalCO2Emission 	376.77702122933
scalar LocScenario.node[59].nic.phy80211p 	busyTime 	0.029292362344565
scalar LocScenario.node[59].nic.mac1609_4 	ReceivedUnicastPackets 	0
scalar LocScenario.node[59].nic.mac1609_4 	ReceivedBroadcasts 	44390
scalar LocScenario.node[59].nic.mac1609_4 	SentPackets 	1126
scalar LocScenario.node[59].nic.mac1609_4 	SNIRLostPackets 	1420
scalar LocScenario.node[59].nic.mac1609_4 	RXTXLostPackets 	0
scalar LocScenario.node[59].nic.mac1609_4 	TotalLostPackets 	1420
scalar LocScenario.node[59].nic.mac1609_4 	DroppedPacketsInMac 	0
scalar LocScenario.node[59].nic.mac1609_4 	TooLittleTime 	0
scalar LocScenario.node[59].nic.mac1609_4 	TimesIntoBackoff 	1126
scalar LocScenario.node[59].nic.mac1609_4 	SlotsBackoff 	1748
scalar LocScenario.node[59].nic.mac1609_4 	NumInternalContention 	0
scalar LocScenario.node[59].nic.mac1609_4 	totalBusyTime 	3.327958
scalar LocScenario.node[59].veinsmobility 	startTime 	58.1
scalar LocScenario.node[59].veinsmobility 	totalTime 	112.5
scalar LocScenario.node[59].veinsmobility 	stopTime 	170.7
scalar LocScenario.node[59].veinsmobility 	minSpeed 	15.520482720402
scalar LocScenario.node[59].veinsmobility 	maxSpeed 	20.119459043907
scalar LocScenario.node[59].veinsmobility 	totalDistance 	2136.5467613032
scalar LocScenario.node[59].veinsmobility 	totalCO2Emission 	358.17509205253
scalar LocScenario.node[52].nic.phy80211p 	busyTime 	0.028635566750612
scalar LocScenario.node[52].nic.mac1609_4 	ReceivedUnicastPackets 	0
scalar LocScenario.node[52].nic.mac1609_4 	ReceivedBroadcasts 	45984
scalar LocScenario.node[52].nic.mac1609_4 	SentPackets 	1191
scalar LocScenario.node[52].nic.mac1609_4 	SNIRLostPackets 	1384
scalar LocScenario.node[52].nic.mac1609_4 	RXTXLostPackets 	0
scalar LocScenario.node[52].nic.mac1609_4 	TotalLostPackets 	1384
scalar LocScenario.node[52].nic.mac1609_4 	DroppedPacketsInMac 	0
scalar LocScenario.node[52].nic.mac1609_4 	TooLittleTime 	0
scalar LocScenario.node[52].nic.mac1609_4 	TimesIntoBackoff 	1191
scalar LocScenario.node[52].nic.mac1609_4 	SlotsBackoff 	1719
scalar LocScenario.node[52].nic.mac1609_4 	NumInternalContention 	0
scalar LocScenario.node[52].nic.mac1609_4 	totalBusyTime 	3.446103641981
scalar LocScenario.node[52].veinsmobility 	startTime 	52.1
scalar LocScenario.node[52].veinsmobility 	totalTime 	119
scalar LocScenario.node[52].veinsmobility 	stopTime 	171.2
scalar LocScenario.node[52].veinsmobility 	minSpeed 	19.990426380909
scalar LocScenario.node[52].veinsmobility 	maxSpeed 	20.119993982937
scalar LocScenario.node[52].veinsmobility 	totalDistance 	2388.4672797473
scalar LocScenario.node[52].veinsmobility 	totalCO2Emission 	383.09067050354
scalar LocScenario.node[61].nic.phy80211p 	busyTime 	0.029475879218455
scalar LocScenario.node[61].nic.mac1609_4 	ReceivedUnicastPackets 	0
scalar LocScenario.node[61].nic.mac1609_4 	ReceivedBroadcasts 	44675
scalar LocScenario.node[61].nic.mac1609_4 	SentPackets 	1126
scalar LocScenario.node[61].nic.mac1609_4 	SNIRLostPackets 	1422
scalar LocScenario.node[61].nic.mac1609_4 	RXTXLostPackets 	0
scalar LocScenario.node[61].nic.mac1609_4 	TotalLostPackets 	1422
scalar LocScenario.node[61].nic.mac1609_4 	DroppedPacketsInMac 	0
scalar LocScenario.node[61].nic.mac1609_4 	TooLittleTime 	0
scalar LocScenario.node[61].nic.mac1609_4 	TimesIntoBackoff 	1126
scalar LocScenario.node[61].nic.mac1609_4 	SlotsBackoff 	1674
scalar LocScenario.node[61].nic.mac1609_4 	NumInternalContention 	0
scalar LocScenario.node[61].nic.mac1609_4 	totalBusyTime 	3.349702
scalar LocScenario.node[61].veinsmobility 	startTime 	60.1
scalar LocScenario.node[61].veinsmobility 	totalTime 	112.5
scalar LocScenario.node[61].veinsmobility 	stopTime 	172.7
scalar LocScenario.node[61].veinsmobility 	minSpeed 	15.520470379328
scalar LocScenario.node[61].veinsmobility 	maxSpeed 	20.119994791788
scalar LocScenario.node[61].veinsmobility 	totalDistance 	2136.1173519866
scalar LocScenario.node[61].veinsmobility 	totalCO2Emission 	356.67142271282
scalar LocScenario.node[54].nic.phy80211p 	busyTime 	0.028809672544062
scalar LocScenario.node[54].nic.mac1609_4 	ReceivedUnicastPackets 	0
scalar LocScenario.node[54].nic.mac1609_4 	ReceivedBroadcasts 	46494
scalar LocScenario.node[54].nic.mac1609_4 	SentPackets 	1191
scalar LocScenario.node[54].nic.mac1609_4 	SNIRLostPackets 	1162
scalar LocScenario.node[54].nic.mac1609_4 	RXTXLostPackets 	0
scalar LocScenario.node[54].nic.mac1609_4 	TotalLostPackets 	1162
scalar LocScenario.node[54].nic.mac1609_4 	DroppedPacketsInMac 	0
scalar LocScenario.node[54].nic.mac1609_4 	TooLittleTime 	0
scalar LocScenario.node[54].nic.mac1609_4 	TimesIntoBackoff 	1191
scalar LocScenario.node[54].nic.mac1609_4 	SlotsBackoff 	1765
scalar LocScenario.node[54].nic.mac1609_4 	NumInternalContention 	0
scalar LocScenario.node[54].nic.mac1609_4 	totalBusyTime 	3.475191256535
scalar LocScenario.node[54].veinsmobility 	startTime 	54.1
scalar LocScenario.node[54].veinsmobility 	totalTime 	119
scalar LocScenario.node[54].veinsmobility 	stopTime 	173.2
scalar LocScenario.node[54].veinsmobility 	minSpeed 	19.990064077897
scalar LocScenario.node[54].veinsmobility 	maxSpeed 	20.119981063502
scalar LocScenario.node[54].veinsmobility 	totalDistance 	2390.0050721234
[...]
scalar LocScenario.node[209].nic.mac1609_4 	ReceivedBroadcasts 	32789
scalar LocScenario.node[209].nic.mac1609_4 	SentPackets 	1126
scalar LocScenario.node[209].nic.mac1609_4 	SNIRLostPackets 	889
scalar LocScenario.node[209].nic.mac1609_4 	RXTXLostPackets 	0
scalar LocScenario.node[209].nic.mac1609_4 	TotalLostPackets 	889
scalar LocScenario.node[209].nic.mac1609_4 	DroppedPacketsInMac 	0
scalar LocScenario.node[209].nic.mac1609_4 	TooLittleTime 	0
scalar LocScenario.node[209].nic.mac1609_4 	TimesIntoBackoff 	1126
scalar LocScenario.node[209].nic.mac1609_4 	SlotsBackoff 	1712
scalar LocScenario.node[209].nic.mac1609_4 	NumInternalContention 	0
scalar LocScenario.node[209].nic.mac1609_4 	totalBusyTime 	2.474542
scalar LocScenario.node[209].veinsmobility 	startTime 	208.1
scalar LocScenario.node[209].veinsmobility 	totalTime 	112.5
scalar LocScenario.node[209].veinsmobility 	stopTime 	320.7
scalar LocScenario.node[209].veinsmobility 	minSpeed 	15.520373105595
scalar LocScenario.node[209].veinsmobility 	maxSpeed 	20.11999615866
scalar LocScenario.node[209].veinsmobility 	totalDistance 	2136.739105899
scalar LocScenario.node[209].veinsmobility 	totalCO2Emission 	358.72804232417
scalar LocScenario.node[202].nic.phy80211p 	busyTime 	0.022331486146091
scalar LocScenario.node[202].nic.mac1609_4 	ReceivedUnicastPackets 	0
scalar LocScenario.node[202].nic.mac1609_4 	ReceivedBroadcasts 	35712
scalar LocScenario.node[202].nic.mac1609_4 	SentPackets 	1191
scalar LocScenario.node[202].nic.mac1609_4 	SNIRLostPackets 	1228
scalar LocScenario.node[202].nic.mac1609_4 	RXTXLostPackets 	0
scalar LocScenario.node[202].nic.mac1609_4 	TotalLostPackets 	1228
scalar LocScenario.node[202].nic.mac1609_4 	DroppedPacketsInMac 	0
scalar LocScenario.node[202].nic.mac1609_4 	TooLittleTime 	0
scalar LocScenario.node[202].nic.mac1609_4 	TimesIntoBackoff 	1257
scalar LocScenario.node[202].nic.mac1609_4 	SlotsBackoff 	1882
scalar LocScenario.node[202].nic.mac1609_4 	NumInternalContention 	0
scalar LocScenario.node[202].nic.mac1609_4 	totalBusyTime 	2.702553854571
scalar LocScenario.node[202].veinsmobility 	startTime 	202.1
scalar LocScenario.node[202].veinsmobility 	totalTime 	119
scalar LocScenario.node[202].veinsmobility 	stopTime 	321.2
scalar LocScenario.node[202].veinsmobility 	minSpeed 	19.990056288098
scalar LocScenario.node[202].veinsmobility 	maxSpeed 	20.119979404726
scalar LocScenario.node[202].veinsmobility 	totalDistance 	2390.3070941039
scalar LocScenario.node[202].veinsmobility 	totalCO2Emission 	380.91121703405
scalar LocScenario.node[211].nic.phy80211p 	busyTime 	0.020734209591475
scalar LocScenario.node[211].nic.mac1609_4 	ReceivedUnicastPackets 	0
scalar LocScenario.node[211].nic.mac1609_4 	ReceivedBroadcasts 	31694
scalar LocScenario.node[211].nic.mac1609_4 	SentPackets 	1126
scalar LocScenario.node[211].nic.mac1609_4 	SNIRLostPackets 	732
scalar LocScenario.node[211].nic.mac1609_4 	RXTXLostPackets 	0
scalar LocScenario.node[211].nic.mac1609_4 	TotalLostPackets 	732
scalar LocScenario.node[211].nic.mac1609_4 	DroppedPacketsInMac 	0
scalar LocScenario.node[211].nic.mac1609_4 	TooLittleTime 	0
scalar LocScenario.node[211].nic.mac1609_4 	TimesIntoBackoff 	1126
scalar LocScenario.node[211].nic.mac1609_4 	SlotsBackoff 	1656
scalar LocScenario.node[211].nic.mac1609_4 	NumInternalContention 	0
scalar LocScenario.node[211].nic.mac1609_4 	totalBusyTime 	2.390446
scalar LocScenario.node[211].veinsmobility 	startTime 	210.1
scalar LocScenario.node[211].veinsmobility 	totalTime 	112.5
scalar LocScenario.node[211].veinsmobility 	stopTime 	322.7
scalar LocScenario.node[211].veinsmobility 	minSpeed 	15.521377269593
scalar LocScenario.node[211].veinsmobility 	maxSpeed 	20.119970844304
scalar LocScenario.node[211].veinsmobility 	totalDistance 	2131.9417034047
scalar LocScenario.node[211].veinsmobility 	totalCO2Emission 	361.42170947295
scalar LocScenario.node[204].nic.phy80211p 	busyTime 	0.021526851385387
scalar LocScenario.node[204].nic.mac1609_4 	ReceivedUnicastPackets 	0
scalar LocScenario.node[204].nic.mac1609_4 	ReceivedBroadcasts 	34647
scalar LocScenario.node[204].nic.mac1609_4 	SentPackets 	1191
scalar LocScenario.node[204].nic.mac1609_4 	SNIRLostPackets 	962
scalar LocScenario.node[204].nic.mac1609_4 	RXTXLostPackets 	0
scalar LocScenario.node[204].nic.mac1609_4 	TotalLostPackets 	962
scalar LocScenario.node[204].nic.mac1609_4 	DroppedPacketsInMac 	0
scalar LocScenario.node[204].nic.mac1609_4 	TooLittleTime 	0
scalar LocScenario.node[204].nic.mac1609_4 	TimesIntoBackoff 	1191
scalar LocScenario.node[204].nic.mac1609_4 	SlotsBackoff 	1749
scalar LocScenario.node[204].nic.mac1609_4 	NumInternalContention 	0
scalar LocScenario.node[204].nic.mac1609_4 	totalBusyTime 	2.616227441883
scalar LocScenario.node[204].veinsmobility 	startTime 	204.1
scalar LocScenario.node[204].veinsmobility 	totalTime 	119
scalar LocScenario.node[204].veinsmobility 	stopTime 	323.2
scalar LocScenario.node[204].veinsmobility 	minSpeed 	19.990155455426
scalar LocScenario.node[204].veinsmobility 	maxSpeed 	20.119971728281
scalar LocScenario.node[204].veinsmobility 	totalDistance 	2386.9341513411
scalar LocScenario.node[204].veinsmobility 	totalCO2Emission 	378.68013771659
scalar LocScenario.node[213].nic.phy80211p 	busyTime 	0.019884404973359
scalar LocScenario.node[213].nic.mac1609_4 	ReceivedUnicastPackets 	0
scalar LocScenario.node[213].nic.mac1609_4 	ReceivedBroadcasts 	30512
scalar LocScenario.node[213].nic.mac1609_4 	SentPackets 	1126
scalar LocScenario.node[213].nic.mac1609_4 	SNIRLostPackets 	585
scalar LocScenario.node[213].nic.mac1609_4 	RXTXLostPackets 	0
scalar LocScenario.node[213].nic.mac1609_4 	TotalLostPackets 	585
scalar LocScenario.node[213].nic.mac1609_4 	DroppedPacketsInMac 	0
scalar LocScenario.node[213].nic.mac1609_4 	TooLittleTime 	0
scalar LocScenario.node[213].nic.mac1609_4 	TimesIntoBackoff 	1126
scalar LocScenario.node[213].nic.mac1609_4 	SlotsBackoff 	1671
scalar LocScenario.node[213].nic.mac1609_4 	NumInternalContention 	0
scalar LocScenario.node[213].nic.mac1609_4 	totalBusyTime 	2.299662115469
scalar LocScenario.node[213].veinsmobility 	startTime 	212.1
scalar LocScenario.node[213].veinsmobility 	totalTime 	112.5
scalar LocScenario.node[213].veinsmobility 	stopTime 	324.7
scalar LocScenario.node[213].veinsmobility 	minSpeed 	15.520248053451
scalar LocScenario.node[213].veinsmobility 	maxSpeed 	20.119993833504
scalar LocScenario.node[213].veinsmobility 	totalDistance 	2136.6049948697
scalar LocScenario.node[213].veinsmobility 	totalCO2Emission 	361.65496946807
scalar LocScenario.node[206].nic.phy80211p 	busyTime 	0.020767556675061
scalar LocScenario.node[206].nic.mac1609_4 	ReceivedUnicastPackets 	0
scalar LocScenario.node[206].nic.mac1609_4 	ReceivedBroadcasts 	33647
scalar LocScenario.node[206].nic.mac1609_4 	SentPackets 	1191
scalar LocScenario.node[206].nic.mac1609_4 	SNIRLostPackets 	706
scalar LocScenario.node[206].nic.mac1609_4 	RXTXLostPackets 	0
scalar LocScenario.node[206].nic.mac1609_4 	TotalLostPackets 	706
scalar LocScenario.node[206].nic.mac1609_4 	DroppedPacketsInMac 	0
scalar LocScenario.node[206].nic.mac1609_4 	TooLittleTime 	0
scalar LocScenario.node[206].nic.mac1609_4 	TimesIntoBackoff 	1191
scalar LocScenario.node[206].nic.mac1609_4 	SlotsBackoff 	1759
scalar LocScenario.node[206].nic.mac1609_4 	NumInternalContention 	0
scalar LocScenario.node[206].nic.mac1609_4 	totalBusyTime 	2.535071948423
scalar LocScenario.node[206].veinsmobility 	startTime 	206.1
scalar LocScenario.node[206].veinsmobility 	totalTime 	119
scalar LocScenario.node[206].veinsmobility 	stopTime 	325.2
scalar LocScenario.node[206].veinsmobility 	minSpeed 	19.990304647165
scalar LocScenario.node[206].veinsmobility 	maxSpeed 	20.119993912049
scalar LocScenario.node[206].veinsmobility 	totalDistance 	2390.1351240021
scalar LocScenario.node[206].veinsmobility 	totalCO2Emission 	377.29532216247
scalar LocScenario.node[215].nic.phy80211p 	busyTime 	0.019026287744232
scalar LocScenario.node[215].nic.mac1609_4 	ReceivedUnicastPackets 	0
scalar LocScenario.node[215].nic.mac1609_4 	ReceivedBroadcasts 	29230
scalar LocScenario.node[215].nic.mac1609_4 	SentPackets 	1126
scalar LocScenario.node[215].nic.mac1609_4 	SNIRLostPackets 	502
scalar LocScenario.node[215].nic.mac1609_4 	RXTXLostPackets 	55
scalar LocScenario.node[215].nic.mac1609_4 	TotalLostPackets 	557
scalar LocScenario.node[215].nic.mac1609_4 	DroppedPacketsInMac 	0
scalar LocScenario.node[215].nic.mac1609_4 	TooLittleTime 	0
scalar LocScenario.node[215].nic.mac1609_4 	TimesIntoBackoff 	1249
scalar LocScenario.node[215].nic.mac1609_4 	SlotsBackoff 	1896
scalar LocScenario.node[215].nic.mac1609_4 	NumInternalContention 	0
scalar LocScenario.node[215].nic.mac1609_4 	totalBusyTime 	2.205622
scalar LocScenario.node[215].veinsmobility 	startTime 	214.1
scalar LocScenario.node[215].veinsmobility 	totalTime 	112.5
scalar LocScenario.node[215].veinsmobility 	stopTime 	326.7
scalar LocScenario.node[215].veinsmobility 	minSpeed 	15.520162393241
scalar LocScenario.node[215].veinsmobility 	maxSpeed 	20.119905290329
scalar LocScenario.node[215].veinsmobility 	totalDistance 	2131.4409270204
scalar LocScenario.node[215].veinsmobility 	totalCO2Emission 	358.79471792331
scalar LocScenario.node[208].nic.phy80211p 	busyTime 	0.019964735516373
scalar LocScenario.node[208].nic.mac1609_4 	ReceivedUnicastPackets 	0
scalar LocScenario.node[208].nic.mac1609_4 	ReceivedBroadcasts 	32304
scalar LocScenario.node[208].nic.mac1609_4 	SentPackets 	1191
scalar LocScenario.node[208].nic.mac1609_4 	SNIRLostPackets 	721
scalar LocScenario.node[208].nic.mac1609_4 	RXTXLostPackets 	0
scalar LocScenario.node[208].nic.mac1609_4 	TotalLostPackets 	721
scalar LocScenario.node[208].nic.mac1609_4 	DroppedPacketsInMac 	0
scalar LocScenario.node[208].nic.mac1609_4 	TooLittleTime 	0
scalar LocScenario.node[208].nic.mac1609_4 	TimesIntoBackoff 	1191
scalar LocScenario.node[208].nic.mac1609_4 	SlotsBackoff 	1832
scalar LocScenario.node[208].nic.mac1609_4 	NumInternalContention 	0
scalar LocScenario.node[208].nic.mac1609_4 	totalBusyTime 	2.438894521144
scalar LocScenario.node[208].veinsmobility 	startTime 	208.1
scalar LocScenario.node[208].veinsmobility 	totalTime 	119
scalar LocScenario.node[208].veinsmobility 	stopTime 	327.2
scalar LocScenario.node[208].veinsmobility 	minSpeed 	19.990040785805
scalar LocScenario.node[208].veinsmobility 	maxSpeed 	20.119842788214
scalar LocScenario.node[208].veinsmobility 	totalDistance 	2388.4894340484
scalar LocScenario.node[208].veinsmobility 	totalCO2Emission 	380.39069770026
scalar LocScenario.node[217].nic.phy80211p 	busyTime 	0.018174564831267
scalar LocScenario.node[217].nic.mac1609_4 	ReceivedUnicastPackets 	0
scalar LocScenario.node[217].nic.mac1609_4 	ReceivedBroadcasts 	27873
scalar LocScenario.node[217].nic.mac1609_4 	SentPackets 	1126
scalar LocScenario.node[217].nic.mac1609_4 	SNIRLostPackets 	550
scalar LocScenario.node[217].nic.mac1609_4 	RXTXLostPackets 	0
scalar LocScenario.node[217].nic.mac1609_4 	TotalLostPackets 	550
scalar LocScenario.node[217].nic.mac1609_4 	DroppedPacketsInMac 	0
scalar LocScenario.node[217].nic.mac1609_4 	TooLittleTime 	0
scalar LocScenario.node[217].nic.mac1609_4 	TimesIntoBackoff 	1126
scalar LocScenario.node[217].nic.mac1609_4 	SlotsBackoff 	1727
scalar LocScenario.node[217].nic.mac1609_4 	NumInternalContention 	0
scalar LocScenario.node[217].nic.mac1609_4 	totalBusyTime 	2.108625868606
scalar LocScenario.node[217].veinsmobility 	startTime 	216.1
scalar LocScenario.node[217].veinsmobility 	totalTime 	112.5
scalar LocScenario.node[217].veinsmobility 	stopTime 	328.7
scalar LocScenario.node[217].veinsmobility 	minSpeed 	15.520588033341
scalar LocScenario.node[217].veinsmobility 	maxSpeed 	20.119601688469
scalar LocScenario.node[217].veinsmobility 	totalDistance 	2136.8069558732
scalar LocScenario.node[217].veinsmobility 	totalCO2Emission 	361.9173889638
scalar LocScenario.node[210].nic.phy80211p 	busyTime 	0.019120201511337
scalar LocScenario.node[210].nic.mac1609_4 	ReceivedUnicastPackets 	0
scalar LocScenario.node[210].nic.mac1609_4 	ReceivedBroadcasts 	31174
scalar LocScenario.node[210].nic.mac1609_4 	SentPackets 	1191
scalar LocScenario.node[210].nic.mac1609_4 	SNIRLostPackets 	454
scalar LocScenario.node[210].nic.mac1609_4 	RXTXLostPackets 	0
scalar LocScenario.node[210].nic.mac1609_4 	TotalLostPackets 	454
scalar LocScenario.node[210].nic.mac1609_4 	DroppedPacketsInMac 	0
scalar LocScenario.node[210].nic.mac1609_4 	TooLittleTime 	0
scalar LocScenario.node[210].nic.mac1609_4 	TimesIntoBackoff 	1191
scalar LocScenario.node[210].nic.mac1609_4 	SlotsBackoff 	1763
scalar LocScenario.node[210].nic.mac1609_4 	NumInternalContention 	0
scalar LocScenario.node[210].nic.mac1609_4 	totalBusyTime 	2.347934160316
scalar LocScenario.node[210].veinsmobility 	startTime 	210.1
scalar LocScenario.node[210].veinsmobility 	totalTime 	119
scalar LocScenario.node[210].veinsmobility 	stopTime 	329.2
scalar LocScenario.node[210].veinsmobility 	minSpeed 	19.990037105854
scalar LocScenario.node[210].veinsmobility 	maxSpeed 	20.119993452672
scalar LocScenario.node[210].veinsmobility 	totalDistance 	2386.7232877482
scalar LocScenario.node[210].veinsmobility 	totalCO2Emission 	380.03146860599
scalar LocScenario.node[219].nic.phy80211p 	busyTime 	0.017313250444056
scalar LocScenario.node[219].nic.mac1609_4 	ReceivedUnicastPackets 	0
scalar LocScenario.node[219].nic.mac1609_4 	ReceivedBroadcasts 	26542
scalar LocScenario.node[219].nic.mac1609_4 	SentPackets 	1126
scalar LocScenario.node[219].nic.mac1609_4 	SNIRLostPackets 	534
scalar LocScenario.node[219].nic.mac1609_4 	RXTXLostPackets 	0
scalar LocScenario.node[219].nic.mac1609_4 	TotalLostPackets 	534
scalar LocScenario.node[219].nic.mac1609_4 	DroppedPacketsInMac 	0
scalar LocScenario.node[219].nic.mac1609_4 	TooLittleTime 	0
scalar LocScenario.node[219].nic.mac1609_4 	TimesIntoBackoff 	1126
scalar LocScenario.node[219].nic.mac1609_4 	SlotsBackoff 	1664
scalar LocScenario.node[219].nic.mac1609_4 	NumInternalContention 	0
scalar LocScenario.node[219].nic.mac1609_4 	totalBusyTime 	2.012374
scalar LocScenario.node[219].veinsmobility 	startTime 	218.1
scalar LocScenario.node[219].veinsmobility 	totalTime 	112.5
scalar LocScenario.node[219].veinsmobility 	stopTime 	330.7
scalar LocScenario.node[219].veinsmobility 	minSpeed 	15.520281596007
scalar LocScenario.node[219].veinsmobility 	maxSpeed 	20.119988768036
scalar LocScenario.node[219].veinsmobility 	totalDistance 	2136.7395558682
scalar LocScenario.node[219].veinsmobility 	totalCO2Emission 	359.09455506856
scalar LocScenario.node[212].nic.phy80211p 	busyTime 	0.018328261964739
scalar LocScenario.node[212].nic.mac1609_4 	ReceivedUnicastPackets 	0
scalar LocScenario.node[212].nic.mac1609_4 	ReceivedBroadcasts 	29950
scalar LocScenario.node[212].nic.mac1609_4 	SentPackets 	1191
scalar LocScenario.node[212].nic.mac1609_4 	SNIRLostPackets 	368
scalar LocScenario.node[212].nic.mac1609_4 	RXTXLostPackets 	0
scalar LocScenario.node[212].nic.mac1609_4 	TotalLostPackets 	368
scalar LocScenario.node[212].nic.mac1609_4 	DroppedPacketsInMac 	0
scalar LocScenario.node[212].nic.mac1609_4 	TooLittleTime 	0
scalar LocScenario.node[212].nic.mac1609_4 	TimesIntoBackoff 	1191
scalar LocScenario.node[212].nic.mac1609_4 	SlotsBackoff 	1871
scalar LocScenario.node[212].nic.mac1609_4 	NumInternalContention 	0
scalar LocScenario.node[212].nic.mac1609_4 	totalBusyTime 	2.256724732254
scalar LocScenario.node[212].veinsmobility 	startTime 	212.1
scalar LocScenario.node[212].veinsmobility 	totalTime 	119
scalar LocScenario.node[212].veinsmobility 	stopTime 	331.2
scalar LocScenario.node[212].veinsmobility 	minSpeed 	19.990073183535
scalar LocScenario.node[212].veinsmobility 	maxSpeed 	20.119922538721
scalar LocScenario.node[212].veinsmobility 	totalDistance 	2390.4693355405
scalar LocScenario.node[212].veinsmobility 	totalCO2Emission 	373.50407063062
scalar LocScenario.node[214].nic.phy80211p 	busyTime 	0.017477682619652
scalar LocScenario.node[214].nic.mac1609_4 	ReceivedUnicastPackets 	0
scalar LocScenario.node[214].nic.mac1609_4 	ReceivedBroadcasts 	28713
scalar LocScenario.node[214].nic.mac1609_4 	SentPackets 	1191
scalar LocScenario.node[214].nic.mac1609_4 	SNIRLostPackets 	198
scalar LocScenario.node[214].nic.mac1609_4 	RXTXLostPackets 	0
scalar LocScenario.node[214].nic.mac1609_4 	TotalLostPackets 	198
scalar LocScenario.node[214].nic.mac1609_4 	DroppedPacketsInMac 	0
scalar LocScenario.node[214].nic.mac1609_4 	TooLittleTime 	0
scalar LocScenario.node[214].nic.mac1609_4 	TimesIntoBackoff 	1191
scalar LocScenario.node[214].nic.mac1609_4 	SlotsBackoff 	1756
scalar LocScenario.node[214].nic.mac1609_4 	NumInternalContention 	0
scalar LocScenario.node[214].nic.mac1609_4 	totalBusyTime 	2.16151771391
scalar LocScenario.node[214].veinsmobility 	startTime 	214.1
scalar LocScenario.node[214].veinsmobility 	totalTime 	119
scalar LocScenario.node[214].veinsmobility 	stopTime 	333.2
scalar LocScenario.node[214].veinsmobility 	minSpeed 	19.990017330903
scalar LocScenario.node[214].veinsmobility 	maxSpeed 	20.119900240449
scalar LocScenario.node[214].veinsmobility 	totalDistance 	2388.3840832177
scalar LocScenario.node[214].veinsmobility 	totalCO2Emission 	377.80085539504
scalar LocScenario.node[216].nic.phy80211p 	busyTime 	0.016638589420661
scalar LocScenario.node[216].nic.mac1609_4 	ReceivedUnicastPackets 	0
scalar LocScenario.node[216].nic.mac1609_4 	ReceivedBroadcasts 	27343
scalar LocScenario.node[216].nic.mac1609_4 	SentPackets 	1191
scalar LocScenario.node[216].nic.mac1609_4 	SNIRLostPackets 	180
scalar LocScenario.node[216].nic.mac1609_4 	RXTXLostPackets 	0
scalar LocScenario.node[216].nic.mac1609_4 	TotalLostPackets 	180
scalar LocScenario.node[216].nic.mac1609_4 	DroppedPacketsInMac 	0
scalar LocScenario.node[216].nic.mac1609_4 	TooLittleTime 	0
scalar LocScenario.node[216].nic.mac1609_4 	TimesIntoBackoff 	1191
scalar LocScenario.node[216].nic.mac1609_4 	SlotsBackoff 	1741
scalar LocScenario.node[216].nic.mac1609_4 	NumInternalContention 	0
scalar LocScenario.node[216].nic.mac1609_4 	totalBusyTime 	2.062254979275
scalar LocScenario.node[216].veinsmobility 	startTime 	216.1
scalar LocScenario.node[216].veinsmobility 	totalTime 	119
scalar LocScenario.node[216].veinsmobility 	stopTime 	335.2
scalar LocScenario.node[216].veinsmobility 	minSpeed 	19.990217540539
scalar LocScenario.node[216].veinsmobility 	maxSpeed 	20.119993793217
scalar LocScenario.node[216].veinsmobility 	totalDistance 	2388.1629743036
scalar LocScenario.node[216].veinsmobility 	totalCO2Emission 	379.05894531253
scalar LocScenario.node[218].nic.phy80211p 	busyTime 	0.015763828715371
scalar LocScenario.node[218].nic.mac1609_4 	ReceivedUnicastPackets 	0
scalar LocScenario.node[218].nic.mac1609_4 	ReceivedBroadcasts 	25916
scalar LocScenario.node[218].nic.mac1609_4 	SentPackets 	1191
scalar LocScenario.node[218].nic.mac1609_4 	SNIRLostPackets 	160
scalar LocScenario.node[218].nic.mac1609_4 	RXTXLostPackets 	0
scalar LocScenario.node[218].nic.mac1609_4 	TotalLostPackets 	160
scalar LocScenario.node[218].nic.mac1609_4 	DroppedPacketsInMac 	0
scalar LocScenario.node[218].nic.mac1609_4 	TooLittleTime 	0
scalar LocScenario.node[218].nic.mac1609_4 	TimesIntoBackoff 	1191
scalar LocScenario.node[218].nic.mac1609_4 	SlotsBackoff 	1875
scalar LocScenario.node[218].nic.mac1609_4 	NumInternalContention 	0
scalar LocScenario.node[218].nic.mac1609_4 	totalBusyTime 	1.95877169343
scalar LocScenario.node[218].veinsmobility 	startTime 	218.1
scalar LocScenario.node[218].veinsmobility 	totalTime 	119
scalar LocScenario.node[218].veinsmobility 	stopTime 	337.2
scalar LocScenario.node[218].veinsmobility 	minSpeed 	19.990005242748
scalar LocScenario.node[218].veinsmobility 	maxSpeed 	20.119844265443
scalar LocScenario.node[218].veinsmobility 	totalDistance 	2388.3893597434
scalar LocScenario.node[218].veinsmobility 	totalCO2Emission 	380.99190074144
